acetylacetone
     RDKit          2D

  7  6  0  0  0  0  0  0  0  0999 V2000
    0.0000    0.0000    0.0000 C   0  0  0  0  0  0  0  0  0  0  0  0
    1.2990    0.7500    0.0000 C   0  0  0  0  0  0  0  0  0  0  0  0
    1.2990    2.2500    0.0000 O   0  0  0  0  0  0  0  0  0  0  0  0
    2.5981   -0.0000    0.0000 C   0  0  0  0  0  0  0  0  0  0  0  0
    3.8971    0.7500    0.0000 C   0  0  0  0  0  0  0  0  0  0  0  0
    5.1962   -0.0000    0.0000 C   0  0  0  0  0  0  0  0  0  0  0  0
    3.8971    2.2500    0.0000 O   0  0  0  0  0  0  0  0  0  0  0  0
  1  2  1  0
  2  3  2  0
  2  4  1  0
  4  5  1  0
  5  6  1  0
  5  7  2  0
M  END
$$$$
4
     RDKit          2D

 27 28  0  0  0  0  0  0  0  0999 V2000
    4.8705    0.0000    0.0000 C   0  0  0  0  0  0  0  0  0  0  0  0
    3.3705    0.0000    0.0000 C   0  0  0  0  0  0  0  0  0  0  0  0
    3.0367   -1.4624    0.0000 O   0  0  0  0  0  0  0  0  0  0  0  0
    2.1015   -2.6351    0.0000 C   0  0  0  0  0  0  0  0  0  0  0  0
    3.0367   -3.8079    0.0000 O   0  0  0  0  0  0  0  0  0  0  0  0
    0.7500   -3.2860    0.0000 C   0  0  0  0  0  0  0  0  0  0  0  0
   -0.6015   -2.6351    0.0000 C   0  0  0  0  0  0  0  0  0  0  0  0
   -2.1015   -2.6351    0.0000 C   0  0  0  0  0  0  0  0  0  0  0  0
   -2.4352   -4.0975    0.0000 O   0  0  0  0  0  0  0  0  0  0  0  0
   -3.0367   -1.4624    0.0000 C   0  0  0  0  0  0  0  0  0  0  0  0
   -3.3705    0.0000    0.0000 C   0  0  0  0  0  0  0  0  0  0  0  0
   -3.0367    1.4624    0.0000 C   0  0  0  0  0  0  0  0  0  0  0  0
   -4.3881    2.1132    0.0000 C   0  0  0  0  0  0  0  0  0  0  0  0
   -2.1015    2.6351    0.0000 O   0  0  0  0  0  0  0  0  0  0  0  0
   -0.7500    3.2860    0.0000 C   0  0  0  0  0  0  0  0  0  0  0  0
   -1.0838    4.7484    0.0000 O   0  0  0  0  0  0  0  0  0  0  0  0
    0.7500    3.2860    0.0000 C   0  0  0  0  0  0  0  0  0  0  0  0
    1.6852    2.1132    0.0000 C   0  0  0  0  0  0  0  0  0  0  0  0
    3.0367    1.4624    0.0000 C   0  0  0  0  0  0  0  0  0  0  0  0
    3.9719    2.6351    0.0000 O   0  0  0  0  0  0  0  0  0  0  0  0
    5.4552    2.4116    0.0000 C   0  0  0  0  0  0  0  0  0  0  0  0
    6.3904    3.5843    0.0000 C   0  0  0  0  0  0  0  0  0  0  0  0
    7.8736    3.3608    0.0000 C   0  0  0  0  0  0  0  0  0  0  0  0
    8.8089    4.5335    0.0000 C   0  0  0  0  0  0  0  0  0  0  0  0
    8.2609    5.9298    0.0000 C   0  0  0  0  0  0  0  0  0  0  0  0
    6.7776    6.1534    0.0000 C   0  0  0  0  0  0  0  0  0  0  0  0
    5.8424    4.9806    0.0000 C   0  0  0  0  0  0  0  0  0  0  0  0
  2  1  1  6
  2  3  1  0
  3  4  1  0
  4  5  2  0
  4  6  1  0
  6  7  2  0
  7  8  1  0
  8  9  2  0
  8 10  1  0
 10 11  1  0
 11 12  1  0
 12 13  1  6
 12 14  1  0
 14 15  1  0
 15 16  2  0
 15 17  1  0
 17 18  2  0
 18 19  1  0
 19 20  1  1
 20 21  1  0
 21 22  1  0
 22 23  2  0
 23 24  1  0
 24 25  2  0
 25 26  1  0
 26 27  2  0
 19  2  1  0
 27 22  1  0
M  END
$$$$
7
     RDKit          2D

 10 10  0  0  0  0  0  0  0  0999 V2000
    3.7500   -1.2990    0.0000 C   0  0  0  0  0  0  0  0  0  0  0  0
    3.0000    0.0000    0.0000 O   0  0  0  0  0  0  0  0  0  0  0  0
    1.5000    0.0000    0.0000 C   0  0  0  0  0  0  0  0  0  0  0  0
    0.7500   -1.2990    0.0000 C   0  0  0  0  0  0  0  0  0  0  0  0
   -0.7500   -1.2990    0.0000 C   0  0  0  0  0  0  0  0  0  0  0  0
   -1.5000   -2.5981    0.0000 C   0  0  0  0  0  0  0  0  0  0  0  0
   -1.5000    0.0000    0.0000 O   0  0  0  0  0  0  0  0  0  0  0  0
   -0.7500    1.2990    0.0000 C   0  0  0  0  0  0  0  0  0  0  0  0
   -1.5000    2.5981    0.0000 O   0  0  0  0  0  0  0  0  0  0  0  0
    0.7500    1.2990    0.0000 C   0  0  0  0  0  0  0  0  0  0  0  0
  1  2  1  0
  2  3  1  0
  3  4  1  0
  4  5  2  0
  5  6  1  0
  5  7  1  0
  7  8  1  0
  8  9  2  0
  8 10  1  0
 10  3  2  0
M  END
$$$$
8
     RDKit          2D

 15 14  0  0  0  0  0  0  0  0999 V2000
    0.0000    0.0000    0.0000 C   0  0  0  0  0  0  0  0  0  0  0  0
    1.2990    0.7500    0.0000 C   0  0  0  0  0  0  0  0  0  0  0  0
    2.5981   -0.0000    0.0000 C   0  0  0  0  0  0  0  0  0  0  0  0
    3.8971    0.7500    0.0000 C   0  0  0  0  0  0  0  0  0  0  0  0
    5.1962   -0.0000    0.0000 C   0  0  0  0  0  0  0  0  0  0  0  0
    3.8971    2.2500    0.0000 O   0  0  0  0  0  0  0  0  0  0  0  0
    5.1962    3.0000    0.0000 Si  0  0  0  0  0  4  0  0  0  0  0  0
    4.4462    4.2990    0.0000 C   0  0  0  0  0  0  0  0  0  0  0  0
    5.9462    1.7010    0.0000 C   0  0  0  0  0  0  0  0  0  0  0  0
    6.4952    3.7500    0.0000 C   0  0  0  0  0  0  0  0  0  0  0  0
    1.2990    2.2500    0.0000 O   0  0  0  0  0  0  0  0  0  0  0  0
    0.0000    3.0000    0.0000 Si  0  0  0  0  0  4  0  0  0  0  0  0
   -0.7500    1.7010    0.0000 C   0  0  0  0  0  0  0  0  0  0  0  0
    0.7500    4.2990    0.0000 C   0  0  0  0  0  0  0  0  0  0  0  0
   -1.2990    3.7500    0.0000 C   0  0  0  0  0  0  0  0  0  0  0  0
  1  2  2  0
  2  3  1  0
  3  4  2  3
  4  5  1  0
  4  6  1  0
  6  7  1  0
  7  8  1  0
  7  9  1  0
  7 10  1  0
  2 11  1  0
 11 12  1  0
 12 13  1  0
 12 14  1  0
 12 15  1  0
M  END
$$$$
6
     RDKit          2D

 33 35  0  0  0  0  0  0  0  0999 V2000
    2.9888   -0.1828    0.0000 C   0  0  0  0  0  0  0  0  0  0  0  0
    1.5000    0.0000    0.0000 C   0  0  0  0  0  0  0  0  0  0  0  0
    0.7500   -1.2990    0.0000 C   0  0  0  0  0  0  0  0  0  0  0  0
   -0.7500   -1.2990    0.0000 C   0  0  0  0  0  0  0  0  0  0  0  0
   -1.5000   -2.5981    0.0000 O   0  0  0  0  0  0  0  0  0  0  0  0
   -1.5000    0.0000    0.0000 C   0  0  0  0  0  0  0  0  0  0  0  0
   -0.7500    1.2990    0.0000 C   0  0  0  0  0  0  0  0  0  0  0  0
   -2.1015    1.9499    0.0000 C   0  0  0  0  0  0  0  0  0  0  0  0
   -3.0367    0.7771    0.0000 O   0  0  0  0  0  0  0  0  0  0  0  0
   -3.0367    3.1226    0.0000 O   0  0  0  0  0  0  0  0  0  0  0  0
   -3.3705    4.5850    0.0000 C   0  0  0  0  0  0  0  0  0  0  0  0
   -4.8705    4.5850    0.0000 C   0  0  0  0  0  0  0  0  0  0  0  0
   -3.0367    6.0474    0.0000 C   0  0  0  0  0  0  0  0  0  0  0  0
   -3.9719    7.2201    0.0000 O   0  0  0  0  0  0  0  0  0  0  0  0
   -3.4239    8.6165    0.0000 C   0  0  0  0  0  0  0  0  0  0  0  0
   -4.3591    9.7892    0.0000 C   0  0  0  0  0  0  0  0  0  0  0  0
   -3.8111   11.1855    0.0000 C   0  0  0  0  0  0  0  0  0  0  0  0
   -4.7464   12.3583    0.0000 C   0  0  0  0  0  0  0  0  0  0  0  0
   -6.2296   12.1347    0.0000 C   0  0  0  0  0  0  0  0  0  0  0  0
   -6.7776   10.7384    0.0000 C   0  0  0  0  0  0  0  0  0  0  0  0
   -5.8424    9.5656    0.0000 C   0  0  0  0  0  0  0  0  0  0  0  0
   -1.6852    6.6982    0.0000 C   0  0  0  0  0  0  0  0  0  0  0  0
   -0.7500    7.8710    0.0000 C   0  0  0  0  0  0  0  0  0  0  0  0
    0.7500    7.8710    0.0000 C   0  0  0  0  0  0  0  0  0  0  0  0
    1.0838    9.3334    0.0000 O   0  0  0  0  0  0  0  0  0  0  0  0
    2.1015    7.2201    0.0000 O   0  0  0  0  0  0  0  0  0  0  0  0
    3.0367    6.0474    0.0000 C   0  0  0  0  0  0  0  0  0  0  0  0
    4.3881    6.6982    0.0000 C   0  0  0  0  0  0  0  0  0  0  0  0
    3.3705    4.5850    0.0000 C   0  0  0  0  0  0  0  0  0  0  0  0
    3.0367    3.1226    0.0000 C   0  0  0  0  0  0  0  0  0  0  0  0
    2.1015    1.9499    0.0000 C   0  0  0  0  0  0  0  0  0  0  0  0
    3.1727    0.8999    0.0000 O   0  0  0  0  0  0  0  0  0  0  0  0
    0.7500    1.2990    0.0000 C   0  0  0  0  0  0  0  0  0  0  0  0
  1  2  1  0
  2  3  2  0
  3  4  1  0
  4  5  2  0
  4  6  1  0
  7  6  1  6
  7  8  1  0
  8  9  2  0
  8 10  1  0
 10 11  1  0
 11 12  1  1
 11 13  1  0
 13 14  1  6
 14 15  1  0
 15 16  1  0
 16 17  2  0
 17 18  1  0
 18 19  2  0
 19 20  1  0
 20 21  2  0
 13 22  1  0
 22 23  2  0
 23 24  1  0
 24 25  2  0
 24 26  1  0
 26 27  1  0
 27 28  1  1
 27 29  1  0
 29 30  1  0
 30 31  1  0
 31 32  2  0
 33 31  1  1
 33  2  1  0
 33  7  1  0
 21 16  1  0
M  END
$$$$
9
     RDKit          2D

 33 35  0  0  0  0  0  0  0  0999 V2000
    2.9888   -0.1828    0.0000 C   0  0  0  0  0  0  0  0  0  0  0  0
    1.5000    0.0000    0.0000 C   0  0  0  0  0  0  0  0  0  0  0  0
    0.7500   -1.2990    0.0000 C   0  0  0  0  0  0  0  0  0  0  0  0
   -0.7500   -1.2990    0.0000 C   0  0  0  0  0  0  0  0  0  0  0  0
   -1.5000   -2.5981    0.0000 O   0  0  0  0  0  0  0  0  0  0  0  0
   -1.5000    0.0000    0.0000 C   0  0  0  0  0  0  0  0  0  0  0  0
   -0.7500    1.2990    0.0000 C   0  0  0  0  0  0  0  0  0  0  0  0
   -2.1015    1.9499    0.0000 C   0  0  0  0  0  0  0  0  0  0  0  0
   -3.0367    0.7771    0.0000 O   0  0  0  0  0  0  0  0  0  0  0  0
   -3.0367    3.1226    0.0000 C   0  0  0  0  0  0  0  0  0  0  0  0
   -3.3705    4.5850    0.0000 C   0  0  0  0  0  0  0  0  0  0  0  0
   -3.0367    6.0474    0.0000 C   0  0  0  0  0  0  0  0  0  0  0  0
   -4.3881    6.6982    0.0000 C   0  0  0  0  0  0  0  0  0  0  0  0
   -2.1015    7.2201    0.0000 O   0  0  0  0  0  0  0  0  0  0  0  0
   -0.7500    7.8710    0.0000 C   0  0  0  0  0  0  0  0  0  0  0  0
   -0.4162    9.3334    0.0000 O   0  0  0  0  0  0  0  0  0  0  0  0
    0.6015    7.2201    0.0000 C   0  0  0  0  0  0  0  0  0  0  0  0
    2.1015    7.2201    0.0000 C   0  0  0  0  0  0  0  0  0  0  0  0
    3.0367    6.0474    0.0000 C   0  0  0  0  0  0  0  0  0  0  0  0
    4.3881    6.6982    0.0000 O   0  0  0  0  0  0  0  0  0  0  0  0
    4.5002    8.1940    0.0000 C   0  0  0  0  0  0  0  0  0  0  0  0
    5.8517    8.8449    0.0000 C   0  0  0  0  0  0  0  0  0  0  0  0
    7.0910    7.9999    0.0000 C   0  0  0  0  0  0  0  0  0  0  0  0
    8.4425    8.6507    0.0000 C   0  0  0  0  0  0  0  0  0  0  0  0
    8.5546   10.1465    0.0000 C   0  0  0  0  0  0  0  0  0  0  0  0
    7.3152   10.9915    0.0000 C   0  0  0  0  0  0  0  0  0  0  0  0
    5.9638   10.3407    0.0000 C   0  0  0  0  0  0  0  0  0  0  0  0
    3.3705    4.5850    0.0000 C   0  0  0  0  0  0  0  0  0  0  0  0
    4.8705    4.5850    0.0000 C   0  0  0  0  0  0  0  0  0  0  0  0
    3.0367    3.1226    0.0000 O   0  0  0  0  0  0  0  0  0  0  0  0
    2.1015    1.9499    0.0000 C   0  0  0  0  0  0  0  0  0  0  0  0
    3.1727    0.8999    0.0000 O   0  0  0  0  0  0  0  0  0  0  0  0
    0.7500    1.2990    0.0000 C   0  0  0  0  0  0  0  0  0  0  0  0
  1  2  1  0
  2  3  2  0
  3  4  1  0
  4  5  2  0
  4  6  1  0
  6  7  1  0
  7  8  1  0
  8  9  2  0
  8 10  1  0
 10 11  1  0
 11 12  1  0
 12 13  1  6
 12 14  1  0
 14 15  1  0
 15 16  2  0
 15 17  1  0
 17 18  2  0
 18 19  1  0
 19 20  1  1
 20 21  1  0
 21 22  1  0
 22 23  2  0
 23 24  1  0
 24 25  2  0
 25 26  1  0
 26 27  2  0
 19 28  1  0
 28 29  1  6
 28 30  1  0
 30 31  1  0
 31 32  2  0
 31 33  1  0
 33  2  1  0
 33  7  1  0
 27 22  1  0
M  END
$$$$
1
     RDKit          2D

 26 27  0  0  0  0  0  0  0  0999 V2000
    2.9888   -0.1828    0.0000 C   0  0  0  0  0  0  0  0  0  0  0  0
    1.5000    0.0000    0.0000 C   0  0  0  0  0  0  0  0  0  0  0  0
    0.7500   -1.2990    0.0000 C   0  0  0  0  0  0  0  0  0  0  0  0
   -0.7500   -1.2990    0.0000 C   0  0  0  0  0  0  0  0  0  0  0  0
   -1.5000   -2.5981    0.0000 O   0  0  0  0  0  0  0  0  0  0  0  0
   -1.5000    0.0000    0.0000 C   0  0  0  0  0  0  0  0  0  0  0  0
   -0.7500    1.2990    0.0000 C   0  0  0  0  0  0  0  0  0  0  0  0
   -2.1015    1.9499    0.0000 C   0  0  0  0  0  0  0  0  0  0  0  0
   -3.0367    0.7771    0.0000 O   0  0  0  0  0  0  0  0  0  0  0  0
   -3.0367    3.1226    0.0000 O   0  0  0  0  0  0  0  0  0  0  0  0
   -3.3705    4.5850    0.0000 C   0  0  0  0  0  0  0  0  0  0  0  0
   -4.8705    4.5850    0.0000 C   0  0  0  0  0  0  0  0  0  0  0  0
   -3.0367    6.0474    0.0000 C   0  0  0  0  0  0  0  0  0  0  0  0
   -3.9719    7.2201    0.0000 O   0  0  0  0  0  0  0  0  0  0  0  0
   -1.6852    6.6982    0.0000 C   0  0  0  0  0  0  0  0  0  0  0  0
   -0.7500    7.8710    0.0000 C   0  0  0  0  0  0  0  0  0  0  0  0
    0.7500    7.8710    0.0000 C   0  0  0  0  0  0  0  0  0  0  0  0
    1.0838    9.3334    0.0000 O   0  0  0  0  0  0  0  0  0  0  0  0
    2.1015    7.2201    0.0000 O   0  0  0  0  0  0  0  0  0  0  0  0
    3.0367    6.0474    0.0000 C   0  0  0  0  0  0  0  0  0  0  0  0
    4.3881    6.6982    0.0000 C   0  0  0  0  0  0  0  0  0  0  0  0
    3.3705    4.5850    0.0000 C   0  0  0  0  0  0  0  0  0  0  0  0
    3.0367    3.1226    0.0000 C   0  0  0  0  0  0  0  0  0  0  0  0
    2.1015    1.9499    0.0000 C   0  0  0  0  0  0  0  0  0  0  0  0
    3.1727    0.8999    0.0000 O   0  0  0  0  0  0  0  0  0  0  0  0
    0.7500    1.2990    0.0000 C   0  0  0  0  0  0  0  0  0  0  0  0
  1  2  1  0
  2  3  2  0
  3  4  1  0
  4  5  2  0
  4  6  1  0
  7  6  1  6
  7  8  1  0
  8  9  2  0
  8 10  1  0
 10 11  1  0
 11 12  1  1
 11 13  1  0
 13 14  1  6
 13 15  1  0
 15 16  2  0
 16 17  1  0
 17 18  2  0
 17 19  1  0
 19 20  1  0
 20 21  1  1
 20 22  1  0
 22 23  1  0
 23 24  1  0
 24 25  2  0
 26 24  1  1
 26  2  1  0
 26  7  1  0
M  END
$$$$
