(-)-Aspidospermidine
     RDKit          2D

 21 25  0  0  0  0  0  0  0  0999 V2000
   -2.0000   -1.2000    0.0000 C   0  0  0  0  0  0  0  0  0  0  0  0
   -3.0000   -1.6000    0.0000 C   0  0  0  0  0  0  0  0  0  0  0  0
   -3.9000   -0.8000    0.0000 C   0  0  0  0  0  0  0  0  0  0  0  0
   -3.5000    0.3000    0.0000 C   0  0  0  0  0  0  0  0  0  0  0  0
   -2.4000    0.6000    0.0000 C   0  0  0  0  0  0  0  0  0  0  0  0
   -1.6000   -0.2000    0.0000 C   0  0  0  0  0  0  0  0  0  0  0  0
   -0.9000   -1.9000    0.0000 N   0  0  0  0  0  0  0  0  0  0  0  0
    0.0000   -1.2000    0.0000 C   0  0  0  0  0  0  0  0  0  0  0  0
   -0.4000   -0.2000    0.0000 C   0  0  0  0  0  0  0  0  0  0  0  0
    1.0000   -1.4000    0.0000 C   0  0  0  0  0  0  0  0  0  0  0  0
    1.8000   -0.4000    0.0000 C   0  0  0  0  0  0  0  0  0  0  0  0
    1.5000    0.7000    0.0000 C   0  0  0  0  0  0  0  0  0  0  0  0
    0.3000    0.9500    0.0000 C   0  0  0  0  0  0  0  0  0  0  0  0
    0.0000    2.0000    0.0000 N   0  0  0  0  0  0  0  0  0  0  0  0
   -1.2000    2.0000    0.0000 C   0  0  0  0  0  0  0  0  0  0  0  0
   -1.2000    0.8500    0.0000 C   0  0  0  0  0  0  0  0  0  0  0  0
    0.7500    3.0000    0.0000 C   0  0  0  0  0  0  0  0  0  0  0  0
    1.8500    2.7500    0.0000 C   0  0  0  0  0  0  0  0  0  0  0  0
    2.2000    1.6500    0.0000 C   0  0  0  0  0  0  0  0  0  0  0  0
    2.6000    0.4500    0.0000 C   0  0  0  0  0  0  0  0  0  0  0  0
    2.9000   -0.7000    0.0000 C   0  0  0  0  0  0  0  0  0  0  0  0
  1  2  2  0
  2  3  1  0
  3  4  2  0
  4  5  1  0
  5  6  2  0
  6  1  1  0
  1  7  1  0
  7  8  1  0
  8  9  1  0
  9  6  1  0
  9 13  1  0
 13 12  1  0
 12 11  1  0
 11 10  1  0
  8 10  1  6
 14 15  1  0
 15 16  1  0
 14 17  1  0
 17 18  1  0
 18 19  1  0
 20 21  1  0
  9 16  1  1
 13 14  1  1
 12 19  1  0
 12 20  1  6
M  END
>  <molecule_id>  (1) 
paper-0ae671ac9a8bbe22:compound:1

>  <label>  (1) 
1

>  <structure_basis>  (1) 
source_drawing_transcription

>  <review_status>  (1) 
pending_independent_chemist_review

>  <canonical_isomeric_smiles>  (1) 
CC[C@]12CCCN3CC[C@@]4(c5ccccc5N[C@H]4CC1)[C@@H]32

>  <formal_benchmark_eligible>  (1) 
false

$$$$
Known bicyclic starting intermediate 23
     RDKit          2D

 25 27  0  0  0  0  0  0  0  0999 V2000
    0.0000    0.0000    0.0000 C   0  0  0  0  0  0  0  0  0  0  0  0
    0.0000   -1.1000    0.0000 C   0  0  0  0  0  0  0  0  0  0  0  0
    1.0000   -1.7000    0.0000 C   0  0  0  0  0  0  0  0  0  0  0  0
    2.0000   -1.1000    0.0000 C   0  0  0  0  0  0  0  0  0  0  0  0
    2.0000    0.0000    0.0000 C   0  0  0  0  0  0  0  0  0  0  0  0
    1.0000    0.6000    0.0000 C   0  0  0  0  0  0  0  0  0  0  0  0
   -0.4000    1.0000    0.0000 C   0  0  0  0  0  0  0  0  0  0  0  0
    0.5000    1.3500    0.0000 C   0  0  0  0  0  0  0  0  0  0  0  0
    1.5000    1.0000    0.0000 C   0  0  0  0  0  0  0  0  0  0  0  0
    1.0000    1.8500    0.0000 N   0  0  0  0  0  0  0  0  0  0  0  0
    1.8000    2.7000    0.0000 C   0  0  0  0  0  0  0  0  0  0  0  0
    2.8000    2.4500    0.0000 C   0  0  0  0  0  0  0  0  0  0  0  0
    3.7000    3.2000    0.0000 C   0  0  0  0  0  0  0  0  0  0  0  0
    4.5000    3.0000    0.0000 Br  0  0  0  0  0  0  0  0  0  0  0  0
   -1.0000    0.6000    0.0000 C   0  0  0  0  0  0  0  0  0  0  0  0
   -2.0000    0.0000    0.0000 C   0  0  0  0  0  0  0  0  0  0  0  0
   -3.0000    0.6000    0.0000 C   0  0  0  0  0  0  0  0  0  0  0  0
   -3.0000    1.8000    0.0000 C   0  0  0  0  0  0  0  0  0  0  0  0
   -2.0000    2.4000    0.0000 C   0  0  0  0  0  0  0  0  0  0  0  0
   -1.0000    1.8000    0.0000 C   0  0  0  0  0  0  0  0  0  0  0  0
   -2.0000   -1.1500    0.0000 N   0  0  0  0  0  0  0  0  0  0  0  0
    1.2000    3.7000    0.0000 O   0  0  0  0  0  0  0  0  0  0  0  0
   -0.6000   -0.1000    0.0000 O   0  0  0  0  0  0  0  0  0  0  0  0
   -2.6000   -1.9500    0.0000 O   0  0  0  0  0  0  0  0  0  0  0  0
   -1.4000   -1.9500    0.0000 O   0  0  0  0  0  0  0  0  0  0  0  0
 16 17  2  0
 17 18  1  0
 18 19  2  0
 19 20  1  0
 20 15  2  0
 15 16  1  0
  1  2  1  0
  2  3  1  0
  3  4  1  0
  5  4  1  1
  5  6  1  0
  6  1  1  0
  7  8  1  0
 10 11  1  0
 11 12  1  0
 12 13  1  0
 13 14  1  0
 16 21  1  0
  8  9  2  0
  1  7  1  0
  5  9  1  0
  6 10  1  1
  1 15  1  6
 11 22  2  0
  2 23  2  0
 21 24  2  0
 21 25  1  0
M  CHG  2  21   1  25  -1
M  END
>  <molecule_id>  (2) 
paper-0ae671ac9a8bbe22:compound:23

>  <label>  (2) 
23

>  <structure_basis>  (2) 
source_drawing_transcription

>  <review_status>  (2) 
pending_independent_chemist_review

>  <canonical_isomeric_smiles>  (2) 
O=C(CCBr)N[C@H]1[C@H]2C=CC[C@]1(c1ccccc1[N+](=O)[O-])C(=O)CC2

>  <formal_benchmark_eligible>  (2) 
false

$$$$
Compound 24
     RDKit          2D

 32 36  0  0  0  0  0  0  0  0999 V2000
    0.0000    0.0000    0.0000 C   0  0  0  0  0  0  0  0  0  0  0  0
    0.0000   -1.1000    0.0000 C   0  0  0  0  0  0  0  0  0  0  0  0
    1.0000   -1.7000    0.0000 C   0  0  0  0  0  0  0  0  0  0  0  0
    2.0000   -1.1000    0.0000 C   0  0  0  0  0  0  0  0  0  0  0  0
    2.0000    0.0000    0.0000 C   0  0  0  0  0  0  0  0  0  0  0  0
    1.0000    0.6000    0.0000 C   0  0  0  0  0  0  0  0  0  0  0  0
   -0.4000    1.0000    0.0000 C   0  0  0  0  0  0  0  0  0  0  0  0
    0.5000    1.3500    0.0000 C   0  0  0  0  0  0  0  0  0  0  0  0
    1.5000    1.0000    0.0000 C   0  0  0  0  0  0  0  0  0  0  0  0
    1.0000    1.8500    0.0000 N   0  0  0  0  0  0  0  0  0  0  0  0
    1.8000    2.7000    0.0000 C   0  0  0  0  0  0  0  0  0  0  0  0
    2.8000    2.4500    0.0000 C   0  0  0  0  0  0  0  0  0  0  0  0
    3.7000    3.2000    0.0000 C   0  0  0  0  0  0  0  0  0  0  0  0
    4.5000    3.0000    0.0000 Br  0  0  0  0  0  0  0  0  0  0  0  0
   -1.0000    0.6000    0.0000 C   0  0  0  0  0  0  0  0  0  0  0  0
   -2.0000    0.0000    0.0000 C   0  0  0  0  0  0  0  0  0  0  0  0
   -3.0000    0.6000    0.0000 C   0  0  0  0  0  0  0  0  0  0  0  0
   -3.0000    1.8000    0.0000 C   0  0  0  0  0  0  0  0  0  0  0  0
   -2.0000    2.4000    0.0000 C   0  0  0  0  0  0  0  0  0  0  0  0
   -1.0000    1.8000    0.0000 C   0  0  0  0  0  0  0  0  0  0  0  0
   -2.0000   -1.1500    0.0000 N   0  0  0  0  0  0  0  0  0  0  0  0
    1.2000    3.7000    0.0000 O   0  0  0  0  0  0  0  0  0  0  0  0
   -2.0000   -2.3500    0.0000 C   0  0  0  0  0  0  0  0  0  0  0  0
   -2.9000   -2.8500    0.0000 O   0  0  0  0  0  0  0  0  0  0  0  0
   -1.1000   -2.8500    0.0000 O   0  0  0  0  0  0  0  0  0  0  0  0
   -1.1000   -3.9500    0.0000 C   0  0  0  0  0  0  0  0  0  0  0  0
   -1.1000   -5.0500    0.0000 C   0  0  0  0  0  0  0  0  0  0  0  0
   -0.2340   -5.5500    0.0000 C   0  0  0  0  0  0  0  0  0  0  0  0
   -0.2340   -6.5500    0.0000 C   0  0  0  0  0  0  0  0  0  0  0  0
   -1.1000   -7.0500    0.0000 C   0  0  0  0  0  0  0  0  0  0  0  0
   -1.9660   -6.5500    0.0000 C   0  0  0  0  0  0  0  0  0  0  0  0
   -1.9660   -5.5500    0.0000 C   0  0  0  0  0  0  0  0  0  0  0  0
 16 17  2  0
 17 18  1  0
 18 19  2  0
 19 20  1  0
 20 15  2  0
 15 16  1  0
  1  2  1  0
  2  3  1  6
  3  4  1  0
  5  4  1  1
  5  6  1  0
  6  1  1  0
  7  8  1  0
 10 11  1  0
 11 12  1  0
 12 13  1  0
 13 14  1  0
 16 21  1  0
  8  9  2  0
  1  7  1  1
  5  9  1  0
  6 10  1  1
  1 15  1  0
 11 22  2  0
 21  2  1  0
 21 23  1  0
 23 24  2  0
 23 25  1  0
 25 26  1  0
 26 27  1  0
 27 28  2  0
 28 29  1  0
 29 30  2  0
 30 31  1  0
 31 32  2  0
 32 27  1  0
M  END
>  <molecule_id>  (3) 
paper-0ae671ac9a8bbe22:compound:24

>  <label>  (3) 
24

>  <structure_basis>  (3) 
source_drawing_transcription

>  <review_status>  (3) 
pending_independent_chemist_review

>  <canonical_isomeric_smiles>  (3) 
O=C(CCBr)N[C@H]1[C@H]2C=CC[C@@]13c1ccccc1N(C(=O)OCc1ccccc1)[C@H]3CC2

>  <formal_benchmark_eligible>  (3) 
false

$$$$
(-)-N-Methylaspidospermidine
     RDKit          2D

 22 26  0  0  0  0  0  0  0  0999 V2000
   -2.0000   -1.2000    0.0000 C   0  0  0  0  0  0  0  0  0  0  0  0
   -3.0000   -1.6000    0.0000 C   0  0  0  0  0  0  0  0  0  0  0  0
   -3.9000   -0.8000    0.0000 C   0  0  0  0  0  0  0  0  0  0  0  0
   -3.5000    0.3000    0.0000 C   0  0  0  0  0  0  0  0  0  0  0  0
   -2.4000    0.6000    0.0000 C   0  0  0  0  0  0  0  0  0  0  0  0
   -1.6000   -0.2000    0.0000 C   0  0  0  0  0  0  0  0  0  0  0  0
   -0.9000   -1.9000    0.0000 N   0  0  0  0  0  0  0  0  0  0  0  0
    0.0000   -1.2000    0.0000 C   0  0  0  0  0  0  0  0  0  0  0  0
   -0.4000   -0.2000    0.0000 C   0  0  0  0  0  0  0  0  0  0  0  0
    1.0000   -1.4000    0.0000 C   0  0  0  0  0  0  0  0  0  0  0  0
    1.8000   -0.4000    0.0000 C   0  0  0  0  0  0  0  0  0  0  0  0
    1.5000    0.7000    0.0000 C   0  0  0  0  0  0  0  0  0  0  0  0
    0.3000    0.9500    0.0000 C   0  0  0  0  0  0  0  0  0  0  0  0
    0.0000    2.0000    0.0000 N   0  0  0  0  0  0  0  0  0  0  0  0
   -1.2000    2.0000    0.0000 C   0  0  0  0  0  0  0  0  0  0  0  0
   -1.2000    0.8500    0.0000 C   0  0  0  0  0  0  0  0  0  0  0  0
    0.7500    3.0000    0.0000 C   0  0  0  0  0  0  0  0  0  0  0  0
    1.8500    2.7500    0.0000 C   0  0  0  0  0  0  0  0  0  0  0  0
    2.2000    1.6500    0.0000 C   0  0  0  0  0  0  0  0  0  0  0  0
    2.6000    0.4500    0.0000 C   0  0  0  0  0  0  0  0  0  0  0  0
    2.9000   -0.7000    0.0000 C   0  0  0  0  0  0  0  0  0  0  0  0
   -0.9000   -3.0000    0.0000 C   0  0  0  0  0  0  0  0  0  0  0  0
  1  2  2  0
  2  3  1  0
  3  4  2  0
  4  5  1  0
  5  6  2  0
  6  1  1  0
  1  7  1  0
  7  8  1  0
  8  9  1  0
  9  6  1  0
  9 13  1  0
 13 12  1  0
 12 11  1  0
 11 10  1  0
  8 10  1  6
 14 15  1  0
 15 16  1  0
 14 17  1  0
 17 18  1  0
 18 19  1  0
 20 21  1  0
  9 16  1  1
 13 14  1  1
 12 19  1  0
 12 20  1  6
  7 22  1  0
M  END
>  <molecule_id>  (4) 
paper-0ae671ac9a8bbe22:compound:2

>  <label>  (4) 
2

>  <structure_basis>  (4) 
source_drawing_transcription

>  <review_status>  (4) 
pending_independent_chemist_review

>  <canonical_isomeric_smiles>  (4) 
CC[C@]12CCCN3CC[C@@]4(c5ccccc5N(C)[C@H]4CC1)[C@@H]32

>  <formal_benchmark_eligible>  (4) 
false

$$$$
Compound 27
     RDKit          2D

 24 28  0  0  0  0  0  0  0  0999 V2000
   -2.0000   -1.2000    0.0000 C   0  0  0  0  0  0  0  0  0  0  0  0
   -3.0000   -1.6000    0.0000 C   0  0  0  0  0  0  0  0  0  0  0  0
   -3.9000   -0.8000    0.0000 C   0  0  0  0  0  0  0  0  0  0  0  0
   -3.5000    0.3000    0.0000 C   0  0  0  0  0  0  0  0  0  0  0  0
   -2.4000    0.6000    0.0000 C   0  0  0  0  0  0  0  0  0  0  0  0
   -1.6000   -0.2000    0.0000 C   0  0  0  0  0  0  0  0  0  0  0  0
   -0.9000   -1.9000    0.0000 N   0  0  0  0  0  0  0  0  0  0  0  0
    0.0000   -1.2000    0.0000 C   0  0  0  0  0  0  0  0  0  0  0  0
   -0.4000   -0.2000    0.0000 C   0  0  0  0  0  0  0  0  0  0  0  0
    1.0000   -1.4000    0.0000 C   0  0  0  0  0  0  0  0  0  0  0  0
    1.8000   -0.4000    0.0000 C   0  0  0  0  0  0  0  0  0  0  0  0
    1.5000    0.7000    0.0000 C   0  0  0  0  0  0  0  0  0  0  0  0
    0.3000    0.9500    0.0000 C   0  0  0  0  0  0  0  0  0  0  0  0
    0.0000    2.0000    0.0000 N   0  0  0  0  0  0  0  0  0  0  0  0
   -1.2000    2.0000    0.0000 C   0  0  0  0  0  0  0  0  0  0  0  0
   -1.2000    0.8500    0.0000 C   0  0  0  0  0  0  0  0  0  0  0  0
    0.7500    3.0000    0.0000 C   0  0  0  0  0  0  0  0  0  0  0  0
    1.8500    2.7500    0.0000 C   0  0  0  0  0  0  0  0  0  0  0  0
    2.2000    1.6500    0.0000 C   0  0  0  0  0  0  0  0  0  0  0  0
    2.6000    0.4500    0.0000 C   0  0  0  0  0  0  0  0  0  0  0  0
    2.9000   -0.7000    0.0000 C   0  0  0  0  0  0  0  0  0  0  0  0
   -0.9000   -3.0000    0.0000 C   0  0  0  0  0  0  0  0  0  0  0  0
   -1.8000   -3.6000    0.0000 O   0  0  0  0  0  0  0  0  0  0  0  0
    0.0000   -3.6000    0.0000 C   0  0  0  0  0  0  0  0  0  0  0  0
  1  2  2  0
  2  3  1  0
  3  4  2  0
  4  5  1  0
  5  6  2  0
  6  1  1  0
  1  7  1  0
  7  8  1  0
  8  9  1  0
  9  6  1  0
  9 13  1  0
 13 12  1  0
 12 11  1  0
 11 10  1  0
  8 10  1  6
 14 15  1  0
 15 16  1  0
 14 17  1  0
 17 18  1  0
 18 19  1  0
 20 21  1  0
  9 16  1  1
 13 14  1  1
 12 19  1  0
 12 20  1  6
  7 22  1  0
 22 23  2  0
 22 24  1  0
M  END
>  <molecule_id>  (5) 
paper-0ae671ac9a8bbe22:compound:27

>  <label>  (5) 
27

>  <structure_basis>  (5) 
source_drawing_transcription

>  <review_status>  (5) 
pending_independent_chemist_review

>  <canonical_isomeric_smiles>  (5) 
CC[C@]12CCCN3CC[C@@]4(c5ccccc5N(C(C)=O)[C@H]4CC1)[C@@H]32

>  <formal_benchmark_eligible>  (5) 
false

$$$$
O-Demethylaspidospermine (rotation-sign conflict)
     RDKit          2D

 25 29  0  0  0  0  0  0  0  0999 V2000
   -2.0000   -1.2000    0.0000 C   0  0  0  0  0  0  0  0  0  0  0  0
   -3.0000   -1.6000    0.0000 C   0  0  0  0  0  0  0  0  0  0  0  0
   -3.9000   -0.8000    0.0000 C   0  0  0  0  0  0  0  0  0  0  0  0
   -3.5000    0.3000    0.0000 C   0  0  0  0  0  0  0  0  0  0  0  0
   -2.4000    0.6000    0.0000 C   0  0  0  0  0  0  0  0  0  0  0  0
   -1.6000   -0.2000    0.0000 C   0  0  0  0  0  0  0  0  0  0  0  0
   -0.9000   -1.9000    0.0000 N   0  0  0  0  0  0  0  0  0  0  0  0
    0.0000   -1.2000    0.0000 C   0  0  0  0  0  0  0  0  0  0  0  0
   -0.4000   -0.2000    0.0000 C   0  0  0  0  0  0  0  0  0  0  0  0
    1.0000   -1.4000    0.0000 C   0  0  0  0  0  0  0  0  0  0  0  0
    1.8000   -0.4000    0.0000 C   0  0  0  0  0  0  0  0  0  0  0  0
    1.5000    0.7000    0.0000 C   0  0  0  0  0  0  0  0  0  0  0  0
    0.3000    0.9500    0.0000 C   0  0  0  0  0  0  0  0  0  0  0  0
    0.0000    2.0000    0.0000 N   0  0  0  0  0  0  0  0  0  0  0  0
   -1.2000    2.0000    0.0000 C   0  0  0  0  0  0  0  0  0  0  0  0
   -1.2000    0.8500    0.0000 C   0  0  0  0  0  0  0  0  0  0  0  0
    0.7500    3.0000    0.0000 C   0  0  0  0  0  0  0  0  0  0  0  0
    1.8500    2.7500    0.0000 C   0  0  0  0  0  0  0  0  0  0  0  0
    2.2000    1.6500    0.0000 C   0  0  0  0  0  0  0  0  0  0  0  0
    2.6000    0.4500    0.0000 C   0  0  0  0  0  0  0  0  0  0  0  0
    2.9000   -0.7000    0.0000 C   0  0  0  0  0  0  0  0  0  0  0  0
   -0.9000   -3.0000    0.0000 C   0  0  0  0  0  0  0  0  0  0  0  0
   -1.8000   -3.6000    0.0000 O   0  0  0  0  0  0  0  0  0  0  0  0
    0.0000   -3.6000    0.0000 C   0  0  0  0  0  0  0  0  0  0  0  0
   -2.1000   -2.0000    0.0000 O   0  0  0  0  0  0  0  0  0  0  0  0
  1  2  2  0
  2  3  1  0
  3  4  2  0
  4  5  1  0
  5  6  2  0
  6  1  1  0
  1  7  1  0
  7  8  1  0
  8  9  1  0
  9  6  1  0
  9 13  1  0
 13 12  1  0
 12 11  1  0
 11 10  1  0
  8 10  1  6
 14 15  1  0
 15 16  1  0
 14 17  1  0
 17 18  1  0
 18 19  1  0
 20 21  1  0
  9 16  1  1
 13 14  1  1
 12 19  1  0
 12 20  1  6
  7 22  1  0
 22 23  2  0
 22 24  1  0
  2 25  1  0
M  END
>  <molecule_id>  (6) 
paper-0ae671ac9a8bbe22:compound:3

>  <label>  (6) 
3

>  <structure_basis>  (6) 
source_drawing_transcription

>  <review_status>  (6) 
pending_independent_chemist_review

>  <canonical_isomeric_smiles>  (6) 
CC[C@]12CCCN3CC[C@@]4(c5cccc(O)c5N(C(C)=O)[C@H]4CC1)[C@@H]32

>  <formal_benchmark_eligible>  (6) 
false

$$$$
(+)-Aspidospermine
     RDKit          2D

 26 30  0  0  0  0  0  0  0  0999 V2000
   -2.0000   -1.2000    0.0000 C   0  0  0  0  0  0  0  0  0  0  0  0
   -3.0000   -1.6000    0.0000 C   0  0  0  0  0  0  0  0  0  0  0  0
   -3.9000   -0.8000    0.0000 C   0  0  0  0  0  0  0  0  0  0  0  0
   -3.5000    0.3000    0.0000 C   0  0  0  0  0  0  0  0  0  0  0  0
   -2.4000    0.6000    0.0000 C   0  0  0  0  0  0  0  0  0  0  0  0
   -1.6000   -0.2000    0.0000 C   0  0  0  0  0  0  0  0  0  0  0  0
   -0.9000   -1.9000    0.0000 N   0  0  0  0  0  0  0  0  0  0  0  0
    0.0000   -1.2000    0.0000 C   0  0  0  0  0  0  0  0  0  0  0  0
   -0.4000   -0.2000    0.0000 C   0  0  0  0  0  0  0  0  0  0  0  0
    1.0000   -1.4000    0.0000 C   0  0  0  0  0  0  0  0  0  0  0  0
    1.8000   -0.4000    0.0000 C   0  0  0  0  0  0  0  0  0  0  0  0
    1.5000    0.7000    0.0000 C   0  0  0  0  0  0  0  0  0  0  0  0
    0.3000    0.9500    0.0000 C   0  0  0  0  0  0  0  0  0  0  0  0
    0.0000    2.0000    0.0000 N   0  0  0  0  0  0  0  0  0  0  0  0
   -1.2000    2.0000    0.0000 C   0  0  0  0  0  0  0  0  0  0  0  0
   -1.2000    0.8500    0.0000 C   0  0  0  0  0  0  0  0  0  0  0  0
    0.7500    3.0000    0.0000 C   0  0  0  0  0  0  0  0  0  0  0  0
    1.8500    2.7500    0.0000 C   0  0  0  0  0  0  0  0  0  0  0  0
    2.2000    1.6500    0.0000 C   0  0  0  0  0  0  0  0  0  0  0  0
    2.6000    0.4500    0.0000 C   0  0  0  0  0  0  0  0  0  0  0  0
    2.9000   -0.7000    0.0000 C   0  0  0  0  0  0  0  0  0  0  0  0
   -0.9000   -3.0000    0.0000 C   0  0  0  0  0  0  0  0  0  0  0  0
   -1.8000   -3.6000    0.0000 O   0  0  0  0  0  0  0  0  0  0  0  0
    0.0000   -3.6000    0.0000 C   0  0  0  0  0  0  0  0  0  0  0  0
   -2.1000   -2.0000    0.0000 O   0  0  0  0  0  0  0  0  0  0  0  0
   -1.9000   -3.0000    0.0000 C   0  0  0  0  0  0  0  0  0  0  0  0
  1  2  2  0
  2  3  1  0
  3  4  2  0
  4  5  1  0
  5  6  2  0
  6  1  1  0
  1  7  1  0
  7  8  1  0
  8  9  1  0
  9  6  1  0
  9 13  1  0
 13 12  1  0
 12 11  1  0
 11 10  1  0
  8 10  1  6
 14 15  1  0
 15 16  1  0
 14 17  1  0
 17 18  1  0
 18 19  1  0
 20 21  1  0
  9 16  1  1
 13 14  1  1
 12 19  1  0
 12 20  1  6
  7 22  1  0
 22 23  2  0
 22 24  1  0
  2 25  1  0
 25 26  1  0
M  END
>  <molecule_id>  (7) 
paper-0ae671ac9a8bbe22:compound:4

>  <label>  (7) 
4

>  <structure_basis>  (7) 
source_drawing_transcription

>  <review_status>  (7) 
pending_independent_chemist_review

>  <canonical_isomeric_smiles>  (7) 
CC[C@]12CCCN3CC[C@@]4(c5cccc(OC)c5N(C(C)=O)[C@H]4CC1)[C@@H]32

>  <formal_benchmark_eligible>  (7) 
false

$$$$
(-)-Eburenine
     RDKit          2D

 21 25  0  0  0  0  0  0  0  0999 V2000
   -2.0000   -1.2000    0.0000 C   0  0  0  0  0  0  0  0  0  0  0  0
   -3.0000   -1.6000    0.0000 C   0  0  0  0  0  0  0  0  0  0  0  0
   -3.9000   -0.8000    0.0000 C   0  0  0  0  0  0  0  0  0  0  0  0
   -3.5000    0.3000    0.0000 C   0  0  0  0  0  0  0  0  0  0  0  0
   -2.4000    0.6000    0.0000 C   0  0  0  0  0  0  0  0  0  0  0  0
   -1.6000   -0.2000    0.0000 C   0  0  0  0  0  0  0  0  0  0  0  0
   -0.9000   -1.9000    0.0000 N   0  0  0  0  0  0  0  0  0  0  0  0
    0.0000   -1.2000    0.0000 C   0  0  0  0  0  0  0  0  0  0  0  0
   -0.4000   -0.2000    0.0000 C   0  0  0  0  0  0  0  0  0  0  0  0
    1.0000   -1.4000    0.0000 C   0  0  0  0  0  0  0  0  0  0  0  0
    1.8000   -0.4000    0.0000 C   0  0  0  0  0  0  0  0  0  0  0  0
    1.5000    0.7000    0.0000 C   0  0  0  0  0  0  0  0  0  0  0  0
    0.3000    0.9500    0.0000 C   0  0  0  0  0  0  0  0  0  0  0  0
    0.0000    2.0000    0.0000 N   0  0  0  0  0  0  0  0  0  0  0  0
   -1.2000    2.0000    0.0000 C   0  0  0  0  0  0  0  0  0  0  0  0
   -1.2000    0.8500    0.0000 C   0  0  0  0  0  0  0  0  0  0  0  0
    0.7500    3.0000    0.0000 C   0  0  0  0  0  0  0  0  0  0  0  0
    1.8500    2.7500    0.0000 C   0  0  0  0  0  0  0  0  0  0  0  0
    2.2000    1.6500    0.0000 C   0  0  0  0  0  0  0  0  0  0  0  0
    2.6000    0.4500    0.0000 C   0  0  0  0  0  0  0  0  0  0  0  0
    2.9000   -0.7000    0.0000 C   0  0  0  0  0  0  0  0  0  0  0  0
  1  2  2  0
  2  3  1  0
  3  4  2  0
  4  5  1  0
  5  6  2  0
  6  1  1  0
  1  7  1  0
  7  8  2  0
  8  9  1  0
  9  6  1  0
  9 13  1  0
 13 12  1  0
 12 11  1  0
 11 10  1  0
 10  8  1  0
 14 15  1  0
 15 16  1  0
 14 17  1  0
 17 18  1  0
 18 19  1  0
 20 21  1  0
  9 16  1  1
 13 14  1  1
 12 19  1  0
 12 20  1  6
M  END
>  <molecule_id>  (8) 
paper-0ae671ac9a8bbe22:compound:5

>  <label>  (8) 
5

>  <structure_basis>  (8) 
source_drawing_transcription

>  <review_status>  (8) 
pending_independent_chemist_review

>  <canonical_isomeric_smiles>  (8) 
CC[C@]12CCCN3CC[C@]4(C(=Nc5ccccc54)CC1)[C@@H]32

>  <formal_benchmark_eligible>  (8) 
false

$$$$
(+)-Quebrachamine
     RDKit          2D

 21 24  0  0  0  0  0  0  0  0999 V2000
   -2.0000   -1.2000    0.0000 C   0  0  0  0  0  0  0  0  0  0  0  0
   -3.0000   -1.6000    0.0000 C   0  0  0  0  0  0  0  0  0  0  0  0
   -3.9000   -0.8000    0.0000 C   0  0  0  0  0  0  0  0  0  0  0  0
   -3.5000    0.3000    0.0000 C   0  0  0  0  0  0  0  0  0  0  0  0
   -2.4000    0.6000    0.0000 C   0  0  0  0  0  0  0  0  0  0  0  0
   -1.6000   -0.2000    0.0000 C   0  0  0  0  0  0  0  0  0  0  0  0
   -0.9000   -1.9000    0.0000 N   0  0  0  0  0  0  0  0  0  0  0  0
    0.0000   -1.2000    0.0000 C   0  0  0  0  0  0  0  0  0  0  0  0
   -0.4000   -0.2000    0.0000 C   0  0  0  0  0  0  0  0  0  0  0  0
    1.0000   -1.4000    0.0000 C   0  0  0  0  0  0  0  0  0  0  0  0
    1.8000   -0.4000    0.0000 C   0  0  0  0  0  0  0  0  0  0  0  0
    1.5000    0.7000    0.0000 C   0  0  0  0  0  0  0  0  0  0  0  0
    0.3000    0.9500    0.0000 C   0  0  0  0  0  0  0  0  0  0  0  0
    0.0000    2.0000    0.0000 N   0  0  0  0  0  0  0  0  0  0  0  0
   -1.2000    2.0000    0.0000 C   0  0  0  0  0  0  0  0  0  0  0  0
   -1.2000    0.8500    0.0000 C   0  0  0  0  0  0  0  0  0  0  0  0
    0.7500    3.0000    0.0000 C   0  0  0  0  0  0  0  0  0  0  0  0
    1.8500    2.7500    0.0000 C   0  0  0  0  0  0  0  0  0  0  0  0
    2.2000    1.6500    0.0000 C   0  0  0  0  0  0  0  0  0  0  0  0
    2.6000    0.4500    0.0000 C   0  0  0  0  0  0  0  0  0  0  0  0
    2.9000   -0.7000    0.0000 C   0  0  0  0  0  0  0  0  0  0  0  0
  1  2  2  0
  2  3  1  0
  3  4  2  0
  4  5  1  0
  5  6  2  0
  6  1  1  0
  1  7  1  0
  7  8  1  0
  9  8  2  0
  9  6  1  0
 13 12  1  0
 12 11  1  0
 11 10  1  0
 10  8  1  0
 14 15  1  0
 15 16  1  0
 14 17  1  0
 17 18  1  0
 18 19  1  0
 20 21  1  0
  9 16  1  0
 13 14  1  0
 12 19  1  0
 12 20  1  6
M  END
>  <molecule_id>  (9) 
paper-0ae671ac9a8bbe22:compound:6

>  <label>  (9) 
6

>  <structure_basis>  (9) 
source_drawing_transcription

>  <review_status>  (9) 
pending_independent_chemist_review

>  <canonical_isomeric_smiles>  (9) 
CC[C@]12CCCN(CCc3c([nH]c4ccccc34)CC1)C2

>  <formal_benchmark_eligible>  (9) 
false

$$$$
(-)-Vincadifformine
     RDKit          2D

 25 29  0  0  0  0  0  0  0  0999 V2000
   -2.0000   -1.2000    0.0000 C   0  0  0  0  0  0  0  0  0  0  0  0
   -3.0000   -1.6000    0.0000 C   0  0  0  0  0  0  0  0  0  0  0  0
   -3.9000   -0.8000    0.0000 C   0  0  0  0  0  0  0  0  0  0  0  0
   -3.5000    0.3000    0.0000 C   0  0  0  0  0  0  0  0  0  0  0  0
   -2.4000    0.6000    0.0000 C   0  0  0  0  0  0  0  0  0  0  0  0
   -1.6000   -0.2000    0.0000 C   0  0  0  0  0  0  0  0  0  0  0  0
   -0.9000   -1.9000    0.0000 N   0  0  0  0  0  0  0  0  0  0  0  0
    0.0000   -1.2000    0.0000 C   0  0  0  0  0  0  0  0  0  0  0  0
   -0.4000   -0.2000    0.0000 C   0  0  0  0  0  0  0  0  0  0  0  0
    1.0000   -1.4000    0.0000 C   0  0  0  0  0  0  0  0  0  0  0  0
    1.8000   -0.4000    0.0000 C   0  0  0  0  0  0  0  0  0  0  0  0
    1.5000    0.7000    0.0000 C   0  0  0  0  0  0  0  0  0  0  0  0
    0.3000    0.9500    0.0000 C   0  0  0  0  0  0  0  0  0  0  0  0
    0.0000    2.0000    0.0000 N   0  0  0  0  0  0  0  0  0  0  0  0
   -1.2000    2.0000    0.0000 C   0  0  0  0  0  0  0  0  0  0  0  0
   -1.2000    0.8500    0.0000 C   0  0  0  0  0  0  0  0  0  0  0  0
    0.7500    3.0000    0.0000 C   0  0  0  0  0  0  0  0  0  0  0  0
    1.8500    2.7500    0.0000 C   0  0  0  0  0  0  0  0  0  0  0  0
    2.2000    1.6500    0.0000 C   0  0  0  0  0  0  0  0  0  0  0  0
    2.6000    0.4500    0.0000 C   0  0  0  0  0  0  0  0  0  0  0  0
    2.9000   -0.7000    0.0000 C   0  0  0  0  0  0  0  0  0  0  0  0
    1.5000   -2.5000    0.0000 C   0  0  0  0  0  0  0  0  0  0  0  0
    0.9000   -3.4000    0.0000 O   0  0  0  0  0  0  0  0  0  0  0  0
    2.5000   -2.7500    0.0000 O   0  0  0  0  0  0  0  0  0  0  0  0
    2.9000   -3.7500    0.0000 C   0  0  0  0  0  0  0  0  0  0  0  0
  1  2  2  0
  2  3  1  0
  3  4  2  0
  4  5  1  0
  5  6  2  0
  6  1  1  0
  1  7  1  0
  7  8  1  0
  8  9  1  0
  9  6  1  0
  9 13  1  0
 13 12  1  0
 12 11  1  0
 11 10  1  0
  8 10  2  0
 14 15  1  0
 15 16  1  0
 14 17  1  0
 17 18  1  0
 18 19  1  0
 20 21  1  0
  9 16  1  1
 13 14  1  1
 12 19  1  0
 12 20  1  6
 10 22  1  0
 22 23  2  0
 22 24  1  0
 24 25  1  0
M  END
>  <molecule_id>  (10) 
paper-0ae671ac9a8bbe22:compound:7

>  <label>  (10) 
7

>  <structure_basis>  (10) 
source_drawing_transcription

>  <review_status>  (10) 
pending_independent_chemist_review

>  <canonical_isomeric_smiles>  (10) 
CC[C@]12CCCN3CC[C@]4(C(=C(C(=O)OC)C1)Nc1ccccc14)[C@@H]32

>  <formal_benchmark_eligible>  (10) 
false

$$$$
Compound 28
     RDKit          2D

 24 28  0  0  0  0  0  0  0  0999 V2000
   -2.0000   -1.2000    0.0000 C   0  0  0  0  0  0  0  0  0  0  0  0
   -3.0000   -1.6000    0.0000 C   0  0  0  0  0  0  0  0  0  0  0  0
   -3.9000   -0.8000    0.0000 C   0  0  0  0  0  0  0  0  0  0  0  0
   -3.5000    0.3000    0.0000 C   0  0  0  0  0  0  0  0  0  0  0  0
   -2.4000    0.6000    0.0000 C   0  0  0  0  0  0  0  0  0  0  0  0
   -1.6000   -0.2000    0.0000 C   0  0  0  0  0  0  0  0  0  0  0  0
   -0.9000   -1.9000    0.0000 N   0  0  0  0  0  0  0  0  0  0  0  0
    0.0000   -1.2000    0.0000 C   0  0  0  0  0  0  0  0  0  0  0  0
   -0.4000   -0.2000    0.0000 C   0  0  0  0  0  0  0  0  0  0  0  0
    1.0000   -1.4000    0.0000 C   0  0  0  0  0  0  0  0  0  0  0  0
    1.8000   -0.4000    0.0000 C   0  0  0  0  0  0  0  0  0  0  0  0
    1.5000    0.7000    0.0000 C   0  0  0  0  0  0  0  0  0  0  0  0
    0.3000    0.9500    0.0000 C   0  0  0  0  0  0  0  0  0  0  0  0
    0.0000    2.0000    0.0000 N   0  0  0  0  0  0  0  0  0  0  0  0
   -1.2000    2.0000    0.0000 C   0  0  0  0  0  0  0  0  0  0  0  0
   -1.2000    0.8500    0.0000 C   0  0  0  0  0  0  0  0  0  0  0  0
    0.7500    3.0000    0.0000 C   0  0  0  0  0  0  0  0  0  0  0  0
    1.8500    2.7500    0.0000 C   0  0  0  0  0  0  0  0  0  0  0  0
    2.2000    1.6500    0.0000 C   0  0  0  0  0  0  0  0  0  0  0  0
    2.6000    0.4500    0.0000 C   0  0  0  0  0  0  0  0  0  0  0  0
    2.9000   -0.7000    0.0000 C   0  0  0  0  0  0  0  0  0  0  0  0
   -3.1000   -2.7000    0.0000 C   0  0  0  0  0  0  0  0  0  0  0  0
   -2.4000   -3.5000    0.0000 S   0  0  0  0  0  0  0  0  0  0  0  0
   -2.7000   -4.5000    0.0000 C   0  0  0  0  0  0  0  0  0  0  0  0
  1  2  2  0
  2  3  1  0
  3  4  2  0
  4  5  1  0
  5  6  2  0
  6  1  1  0
  1  7  1  0
  7  8  1  0
  8  9  1  0
  9  6  1  0
  9 13  1  0
 13 12  1  0
 12 11  1  0
 11 10  1  0
  8 10  1  6
 14 15  1  0
 15 16  1  0
 14 17  1  0
 17 18  1  0
 18 19  1  0
 20 21  1  0
  9 16  1  1
 13 14  1  1
 12 19  1  0
 12 20  1  6
  2 22  1  0
 22 23  1  0
 23 24  1  0
M  END
>  <molecule_id>  (11) 
paper-0ae671ac9a8bbe22:compound:28

>  <label>  (11) 
28

>  <structure_basis>  (11) 
source_drawing_transcription

>  <review_status>  (11) 
pending_independent_chemist_review

>  <canonical_isomeric_smiles>  (11) 
CC[C@]12CCCN3CC[C@@]4(c5cccc(CSC)c5N[C@H]4CC1)[C@@H]32

>  <formal_benchmark_eligible>  (11) 
false

$$$$
Compound 29
     RDKit          2D

 31 36  0  0  0  0  0  0  0  0999 V2000
   -2.0000   -1.2000    0.0000 C   0  0  0  0  0  0  0  0  0  0  0  0
   -3.0000   -1.6000    0.0000 C   0  0  0  0  0  0  0  0  0  0  0  0
   -3.9000   -0.8000    0.0000 C   0  0  0  0  0  0  0  0  0  0  0  0
   -3.5000    0.3000    0.0000 C   0  0  0  0  0  0  0  0  0  0  0  0
   -2.4000    0.6000    0.0000 C   0  0  0  0  0  0  0  0  0  0  0  0
   -1.6000   -0.2000    0.0000 C   0  0  0  0  0  0  0  0  0  0  0  0
   -0.9000   -1.9000    0.0000 N   0  0  0  0  0  0  0  0  0  0  0  0
    0.0000   -1.2000    0.0000 C   0  0  0  0  0  0  0  0  0  0  0  0
   -0.4000   -0.2000    0.0000 C   0  0  0  0  0  0  0  0  0  0  0  0
    1.0000   -1.4000    0.0000 C   0  0  0  0  0  0  0  0  0  0  0  0
    1.8000   -0.4000    0.0000 C   0  0  0  0  0  0  0  0  0  0  0  0
    1.5000    0.7000    0.0000 C   0  0  0  0  0  0  0  0  0  0  0  0
    0.3000    0.9500    0.0000 C   0  0  0  0  0  0  0  0  0  0  0  0
    0.0000    2.0000    0.0000 N   0  0  0  0  0  0  0  0  0  0  0  0
   -1.2000    2.0000    0.0000 C   0  0  0  0  0  0  0  0  0  0  0  0
   -1.2000    0.8500    0.0000 C   0  0  0  0  0  0  0  0  0  0  0  0
    0.7500    3.0000    0.0000 C   0  0  0  0  0  0  0  0  0  0  0  0
    1.8500    2.7500    0.0000 C   0  0  0  0  0  0  0  0  0  0  0  0
    2.2000    1.6500    0.0000 C   0  0  0  0  0  0  0  0  0  0  0  0
    2.6000    0.4500    0.0000 C   0  0  0  0  0  0  0  0  0  0  0  0
    2.9000   -0.7000    0.0000 C   0  0  0  0  0  0  0  0  0  0  0  0
   -0.9000   -3.1000    0.0000 C   0  0  0  0  0  0  0  0  0  0  0  0
   -1.8000   -3.6000    0.0000 O   0  0  0  0  0  0  0  0  0  0  0  0
    0.0000   -3.6000    0.0000 O   0  0  0  0  0  0  0  0  0  0  0  0
    0.0000   -4.7000    0.0000 C   0  0  0  0  0  0  0  0  0  0  0  0
    0.0000   -5.8000    0.0000 C   0  0  0  0  0  0  0  0  0  0  0  0
    0.8660   -6.3000    0.0000 C   0  0  0  0  0  0  0  0  0  0  0  0
    0.8660   -7.3000    0.0000 C   0  0  0  0  0  0  0  0  0  0  0  0
    0.0000   -7.8000    0.0000 C   0  0  0  0  0  0  0  0  0  0  0  0
   -0.8660   -7.3000    0.0000 C   0  0  0  0  0  0  0  0  0  0  0  0
   -0.8660   -6.3000    0.0000 C   0  0  0  0  0  0  0  0  0  0  0  0
  1  2  2  0
  2  3  1  0
  3  4  2  0
  4  5  1  0
  5  6  2  0
  6  1  1  0
  1  7  1  0
  7  8  1  0
  8  9  1  0
  9  6  1  0
  9 13  1  0
 13 12  1  0
 12 11  1  0
 11 10  1  0
  8 10  2  0
 14 15  1  0
 15 16  1  0
 14 17  1  0
 17 18  1  0
 18 19  1  0
 20 21  1  0
  9 16  1  1
 13 14  1  1
 12 19  1  0
 12 20  1  6
  7 22  1  0
 22 23  2  0
 22 24  1  0
 24 25  1  0
 25 26  1  0
 26 27  2  0
 27 28  1  0
 28 29  2  0
 29 30  1  0
 30 31  2  0
 31 26  1  0
M  END
>  <molecule_id>  (12) 
paper-0ae671ac9a8bbe22:compound:29

>  <label>  (12) 
29

>  <structure_basis>  (12) 
source_drawing_transcription

>  <review_status>  (12) 
pending_independent_chemist_review

>  <canonical_isomeric_smiles>  (12) 
CC[C@@]12CC=C3N(C(=O)OCc4ccccc4)c4ccccc4[C@@]34CCN(CCC1)[C@@H]24

>  <formal_benchmark_eligible>  (12) 
false

$$$$
Compound 30
     RDKit          2D

 34 39  0  0  0  0  0  0  0  0999 V2000
   -2.0000   -1.2000    0.0000 C   0  0  0  0  0  0  0  0  0  0  0  0
   -3.0000   -1.6000    0.0000 C   0  0  0  0  0  0  0  0  0  0  0  0
   -3.9000   -0.8000    0.0000 C   0  0  0  0  0  0  0  0  0  0  0  0
   -3.5000    0.3000    0.0000 C   0  0  0  0  0  0  0  0  0  0  0  0
   -2.4000    0.6000    0.0000 C   0  0  0  0  0  0  0  0  0  0  0  0
   -1.6000   -0.2000    0.0000 C   0  0  0  0  0  0  0  0  0  0  0  0
   -0.9000   -1.9000    0.0000 N   0  0  0  0  0  0  0  0  0  0  0  0
    0.0000   -1.2000    0.0000 C   0  0  0  0  0  0  0  0  0  0  0  0
   -0.4000   -0.2000    0.0000 C   0  0  0  0  0  0  0  0  0  0  0  0
    1.0000   -1.4000    0.0000 C   0  0  0  0  0  0  0  0  0  0  0  0
    1.8000   -0.4000    0.0000 C   0  0  0  0  0  0  0  0  0  0  0  0
    1.5000    0.7000    0.0000 C   0  0  0  0  0  0  0  0  0  0  0  0
    0.3000    0.9500    0.0000 C   0  0  0  0  0  0  0  0  0  0  0  0
    0.0000    2.0000    0.0000 N   0  0  0  0  0  0  0  0  0  0  0  0
   -1.2000    2.0000    0.0000 C   0  0  0  0  0  0  0  0  0  0  0  0
   -1.2000    0.8500    0.0000 C   0  0  0  0  0  0  0  0  0  0  0  0
    0.7500    3.0000    0.0000 C   0  0  0  0  0  0  0  0  0  0  0  0
    1.8500    2.7500    0.0000 C   0  0  0  0  0  0  0  0  0  0  0  0
    2.2000    1.6500    0.0000 C   0  0  0  0  0  0  0  0  0  0  0  0
    2.6000    0.4500    0.0000 C   0  0  0  0  0  0  0  0  0  0  0  0
    2.9000   -0.7000    0.0000 C   0  0  0  0  0  0  0  0  0  0  0  0
   -3.1000   -2.7000    0.0000 C   0  0  0  0  0  0  0  0  0  0  0  0
   -2.4000   -3.5000    0.0000 S   0  0  0  0  0  0  0  0  0  0  0  0
   -2.7000   -4.5000    0.0000 C   0  0  0  0  0  0  0  0  0  0  0  0
   -0.9000   -3.1000    0.0000 C   0  0  0  0  0  0  0  0  0  0  0  0
   -1.8000   -3.6000    0.0000 O   0  0  0  0  0  0  0  0  0  0  0  0
    0.0000   -3.6000    0.0000 O   0  0  0  0  0  0  0  0  0  0  0  0
    0.0000   -4.7000    0.0000 C   0  0  0  0  0  0  0  0  0  0  0  0
    0.0000   -5.8000    0.0000 C   0  0  0  0  0  0  0  0  0  0  0  0
    0.8660   -6.3000    0.0000 C   0  0  0  0  0  0  0  0  0  0  0  0
    0.8660   -7.3000    0.0000 C   0  0  0  0  0  0  0  0  0  0  0  0
    0.0000   -7.8000    0.0000 C   0  0  0  0  0  0  0  0  0  0  0  0
   -0.8660   -7.3000    0.0000 C   0  0  0  0  0  0  0  0  0  0  0  0
   -0.8660   -6.3000    0.0000 C   0  0  0  0  0  0  0  0  0  0  0  0
  1  2  2  0
  2  3  1  0
  3  4  2  0
  4  5  1  0
  5  6  2  0
  6  1  1  0
  1  7  1  0
  7  8  1  0
  8  9  1  0
  9  6  1  0
  9 13  1  0
 13 12  1  0
 12 11  1  0
 11 10  1  0
  8 10  1  6
 14 15  1  0
 15 16  1  0
 14 17  1  0
 17 18  1  0
 18 19  1  0
 20 21  1  0
  9 16  1  1
 13 14  1  1
 12 19  1  0
 12 20  1  6
  2 22  1  0
 22 23  1  0
 23 24  1  0
  7 25  1  0
 25 26  2  0
 25 27  1  0
 27 28  1  0
 28 29  1  0
 29 30  2  0
 30 31  1  0
 31 32  2  0
 32 33  1  0
 33 34  2  0
 34 29  1  0
M  END
>  <molecule_id>  (13) 
paper-0ae671ac9a8bbe22:compound:30

>  <label>  (13) 
30

>  <structure_basis>  (13) 
source_drawing_transcription

>  <review_status>  (13) 
pending_independent_chemist_review

>  <canonical_isomeric_smiles>  (13) 
CC[C@]12CCCN3CC[C@@]4(c5cccc(CSC)c5N(C(=O)OCc5ccccc5)[C@H]4CC1)[C@@H]32

>  <formal_benchmark_eligible>  (13) 
false

$$$$
Compound 31
     RDKit          2D

 25 29  0  0  0  0  0  0  0  0999 V2000
   -2.0000   -1.2000    0.0000 C   0  0  0  0  0  0  0  0  0  0  0  0
   -3.0000   -1.6000    0.0000 C   0  0  0  0  0  0  0  0  0  0  0  0
   -3.9000   -0.8000    0.0000 C   0  0  0  0  0  0  0  0  0  0  0  0
   -3.5000    0.3000    0.0000 C   0  0  0  0  0  0  0  0  0  0  0  0
   -2.4000    0.6000    0.0000 C   0  0  0  0  0  0  0  0  0  0  0  0
   -1.6000   -0.2000    0.0000 C   0  0  0  0  0  0  0  0  0  0  0  0
   -0.9000   -1.9000    0.0000 N   0  0  0  0  0  0  0  0  0  0  0  0
    0.0000   -1.2000    0.0000 C   0  0  0  0  0  0  0  0  0  0  0  0
   -0.4000   -0.2000    0.0000 C   0  0  0  0  0  0  0  0  0  0  0  0
    1.0000   -1.4000    0.0000 C   0  0  0  0  0  0  0  0  0  0  0  0
    1.8000   -0.4000    0.0000 C   0  0  0  0  0  0  0  0  0  0  0  0
    1.5000    0.7000    0.0000 C   0  0  0  0  0  0  0  0  0  0  0  0
    0.3000    0.9500    0.0000 C   0  0  0  0  0  0  0  0  0  0  0  0
    0.0000    2.0000    0.0000 N   0  0  0  0  0  0  0  0  0  0  0  0
   -1.2000    2.0000    0.0000 C   0  0  0  0  0  0  0  0  0  0  0  0
   -1.2000    0.8500    0.0000 C   0  0  0  0  0  0  0  0  0  0  0  0
    0.7500    3.0000    0.0000 C   0  0  0  0  0  0  0  0  0  0  0  0
    1.8500    2.7500    0.0000 C   0  0  0  0  0  0  0  0  0  0  0  0
    2.2000    1.6500    0.0000 C   0  0  0  0  0  0  0  0  0  0  0  0
    2.6000    0.4500    0.0000 C   0  0  0  0  0  0  0  0  0  0  0  0
    2.9000   -0.7000    0.0000 C   0  0  0  0  0  0  0  0  0  0  0  0
   -0.4000   -3.0000    0.0000 C   0  0  0  0  0  0  0  0  0  0  0  0
   -1.0000   -3.9000    0.0000 O   0  0  0  0  0  0  0  0  0  0  0  0
    0.6000   -3.2500    0.0000 O   0  0  0  0  0  0  0  0  0  0  0  0
    1.0000   -4.2500    0.0000 C   0  0  0  0  0  0  0  0  0  0  0  0
  1  2  2  0
  2  3  1  0
  3  4  2  0
  4  5  1  0
  5  6  2  0
  6  1  1  0
  1  7  1  0
  7  8  1  0
  8  9  1  0
  9  6  1  0
  9 13  1  0
 13 12  1  0
 12 11  1  0
 11 10  1  0
  8 10  2  0
 14 15  1  0
 15 16  1  0
 14 17  1  0
 17 18  1  0
 18 19  1  0
 20 21  1  0
  9 16  1  1
 13 14  1  1
 12 19  1  0
 12 20  1  6
  7 22  1  0
 22 23  2  0
 22 24  1  0
 24 25  1  0
M  END
>  <molecule_id>  (14) 
paper-0ae671ac9a8bbe22:compound:31

>  <label>  (14) 
31

>  <structure_basis>  (14) 
source_drawing_transcription

>  <review_status>  (14) 
pending_independent_chemist_review

>  <canonical_isomeric_smiles>  (14) 
CC[C@@]12CC=C3N(C(=O)OC)c4ccccc4[C@@]34CCN(CCC1)[C@@H]24

>  <formal_benchmark_eligible>  (14) 
false

$$$$
Common pentacyclic core 25
     RDKit          2D

 33 38  0  0  0  0  0  0  0  0999 V2000
   -2.0000   -1.2000    0.0000 C   0  0  0  0  0  0  0  0  0  0  0  0
   -3.0000   -1.6000    0.0000 C   0  0  0  0  0  0  0  0  0  0  0  0
   -3.9000   -0.8000    0.0000 C   0  0  0  0  0  0  0  0  0  0  0  0
   -3.5000    0.3000    0.0000 C   0  0  0  0  0  0  0  0  0  0  0  0
   -2.4000    0.6000    0.0000 C   0  0  0  0  0  0  0  0  0  0  0  0
   -1.6000   -0.2000    0.0000 C   0  0  0  0  0  0  0  0  0  0  0  0
   -0.9000   -1.9000    0.0000 N   0  0  0  0  0  0  0  0  0  0  0  0
    0.0000   -1.2000    0.0000 C   0  0  0  0  0  0  0  0  0  0  0  0
   -0.4000   -0.2000    0.0000 C   0  0  0  0  0  0  0  0  0  0  0  0
    1.0000   -1.4000    0.0000 C   0  0  0  0  0  0  0  0  0  0  0  0
    1.8000   -0.4000    0.0000 C   0  0  0  0  0  0  0  0  0  0  0  0
    1.5000    0.7000    0.0000 C   0  0  0  0  0  0  0  0  0  0  0  0
    0.3000    0.9500    0.0000 C   0  0  0  0  0  0  0  0  0  0  0  0
    0.0000    2.0000    0.0000 N   0  0  0  0  0  0  0  0  0  0  0  0
   -1.2000    2.0000    0.0000 C   0  0  0  0  0  0  0  0  0  0  0  0
   -1.2000    0.8500    0.0000 C   0  0  0  0  0  0  0  0  0  0  0  0
    0.7500    3.0000    0.0000 C   0  0  0  0  0  0  0  0  0  0  0  0
    1.8500    2.7500    0.0000 C   0  0  0  0  0  0  0  0  0  0  0  0
    2.2000    1.6500    0.0000 C   0  0  0  0  0  0  0  0  0  0  0  0
    2.6000    0.4500    0.0000 C   0  0  0  0  0  0  0  0  0  0  0  0
   -0.9000   -3.1000    0.0000 C   0  0  0  0  0  0  0  0  0  0  0  0
   -1.8000   -3.6000    0.0000 O   0  0  0  0  0  0  0  0  0  0  0  0
    0.0000   -3.6000    0.0000 O   0  0  0  0  0  0  0  0  0  0  0  0
    0.0000   -4.7000    0.0000 C   0  0  0  0  0  0  0  0  0  0  0  0
    0.0000   -5.8000    0.0000 C   0  0  0  0  0  0  0  0  0  0  0  0
    0.8660   -6.3000    0.0000 C   0  0  0  0  0  0  0  0  0  0  0  0
    0.8660   -7.3000    0.0000 C   0  0  0  0  0  0  0  0  0  0  0  0
    0.0000   -7.8000    0.0000 C   0  0  0  0  0  0  0  0  0  0  0  0
   -0.8660   -7.3000    0.0000 C   0  0  0  0  0  0  0  0  0  0  0  0
   -0.8660   -6.3000    0.0000 C   0  0  0  0  0  0  0  0  0  0  0  0
    0.1500    4.0000    0.0000 O   0  0  0  0  0  0  0  0  0  0  0  0
    2.0000    1.4500    0.0000 O   0  0  0  0  0  0  0  0  0  0  0  0
   -2.1000    2.7000    0.0000 O   0  0  0  0  0  0  0  0  0  0  0  0
  1  2  2  0
  2  3  1  0
  3  4  2  0
  4  5  1  0
  5  6  2  0
  6  1  1  0
  1  7  1  0
  7  8  1  0
  8  9  1  0
  9  6  1  0
  9 13  1  0
 13 12  1  0
 12 11  1  0
 11 10  1  0
  8 10  1  6
 14 15  1  0
 15 16  1  0
 14 17  1  0
 17 18  1  0
 18 19  1  0
  9 16  1  1
 13 14  1  1
 12 19  1  0
 12 20  1  6
  7 21  1  0
 21 22  2  0
 21 23  1  0
 23 24  1  0
 24 25  1  0
 25 26  2  0
 26 27  1  0
 27 28  2  0
 28 29  1  0
 29 30  2  0
 30 25  1  0
 17 31  2  0
 20 32  2  0
 15 33  1  6
M  END
>  <molecule_id>  (15) 
paper-0ae671ac9a8bbe22:compound:25

>  <label>  (15) 
25

>  <structure_basis>  (15) 
source_drawing_transcription

>  <review_status>  (15) 
pending_independent_chemist_review

>  <canonical_isomeric_smiles>  (15) 
O=C[C@]12CCC(=O)N3[C@@H](O)C[C@@]4(c5ccccc5N(C(=O)OCc5ccccc5)[C@H]4CC1)[C@@H]32

>  <formal_benchmark_eligible>  (15) 
false

$$$$
Compound 26
     RDKit          2D

 33 38  0  0  0  0  0  0  0  0999 V2000
   -2.0000   -1.2000    0.0000 C   0  0  0  0  0  0  0  0  0  0  0  0
   -3.0000   -1.6000    0.0000 C   0  0  0  0  0  0  0  0  0  0  0  0
   -3.9000   -0.8000    0.0000 C   0  0  0  0  0  0  0  0  0  0  0  0
   -3.5000    0.3000    0.0000 C   0  0  0  0  0  0  0  0  0  0  0  0
   -2.4000    0.6000    0.0000 C   0  0  0  0  0  0  0  0  0  0  0  0
   -1.6000   -0.2000    0.0000 C   0  0  0  0  0  0  0  0  0  0  0  0
   -0.9000   -1.9000    0.0000 N   0  0  0  0  0  0  0  0  0  0  0  0
    0.0000   -1.2000    0.0000 C   0  0  0  0  0  0  0  0  0  0  0  0
   -0.4000   -0.2000    0.0000 C   0  0  0  0  0  0  0  0  0  0  0  0
    1.0000   -1.4000    0.0000 C   0  0  0  0  0  0  0  0  0  0  0  0
    1.8000   -0.4000    0.0000 C   0  0  0  0  0  0  0  0  0  0  0  0
    1.5000    0.7000    0.0000 C   0  0  0  0  0  0  0  0  0  0  0  0
    0.3000    0.9500    0.0000 C   0  0  0  0  0  0  0  0  0  0  0  0
    0.0000    2.0000    0.0000 N   0  0  0  0  0  0  0  0  0  0  0  0
   -1.2000    2.0000    0.0000 C   0  0  0  0  0  0  0  0  0  0  0  0
   -1.2000    0.8500    0.0000 C   0  0  0  0  0  0  0  0  0  0  0  0
    0.7500    3.0000    0.0000 C   0  0  0  0  0  0  0  0  0  0  0  0
    1.8500    2.7500    0.0000 C   0  0  0  0  0  0  0  0  0  0  0  0
    2.2000    1.6500    0.0000 C   0  0  0  0  0  0  0  0  0  0  0  0
    2.6000    0.4500    0.0000 C   0  0  0  0  0  0  0  0  0  0  0  0
   -0.9000   -3.1000    0.0000 C   0  0  0  0  0  0  0  0  0  0  0  0
   -1.8000   -3.6000    0.0000 O   0  0  0  0  0  0  0  0  0  0  0  0
    0.0000   -3.6000    0.0000 O   0  0  0  0  0  0  0  0  0  0  0  0
    0.0000   -4.7000    0.0000 C   0  0  0  0  0  0  0  0  0  0  0  0
    0.0000   -5.8000    0.0000 C   0  0  0  0  0  0  0  0  0  0  0  0
    0.8660   -6.3000    0.0000 C   0  0  0  0  0  0  0  0  0  0  0  0
    0.8660   -7.3000    0.0000 C   0  0  0  0  0  0  0  0  0  0  0  0
    0.0000   -7.8000    0.0000 C   0  0  0  0  0  0  0  0  0  0  0  0
   -0.8660   -7.3000    0.0000 C   0  0  0  0  0  0  0  0  0  0  0  0
   -0.8660   -6.3000    0.0000 C   0  0  0  0  0  0  0  0  0  0  0  0
    0.1500    4.0000    0.0000 O   0  0  0  0  0  0  0  0  0  0  0  0
   -2.1000    2.7000    0.0000 O   0  0  0  0  0  0  0  0  0  0  0  0
    2.9000   -0.6500    0.0000 C   0  0  0  0  0  0  0  0  0  0  0  0
  1  2  2  0
  2  3  1  0
  3  4  2  0
  4  5  1  0
  5  6  2  0
  6  1  1  0
  1  7  1  0
  7  8  1  0
  8  9  1  0
  9  6  1  0
  9 13  1  0
 13 12  1  0
 12 11  1  0
 11 10  1  0
  8 10  1  6
 14 15  1  0
 15 16  1  0
 14 17  1  0
 17 18  1  0
 18 19  1  0
  9 16  1  1
 13 14  1  1
 12 19  1  0
 12 20  1  6
  7 21  1  0
 21 22  2  0
 21 23  1  0
 23 24  1  0
 24 25  1  0
 25 26  2  0
 26 27  1  0
 27 28  2  0
 28 29  1  0
 29 30  2  0
 30 25  1  0
 17 31  2  0
 15 32  1  0
 20 33  2  0
M  END
>  <molecule_id>  (16) 
paper-0ae671ac9a8bbe22:compound:26

>  <label>  (16) 
26

>  <structure_basis>  (16) 
source_drawing_transcription

>  <review_status>  (16) 
pending_independent_chemist_review

>  <canonical_isomeric_smiles>  (16) 
C=C[C@]12CCC(=O)N3C(O)C[C@@]4(c5ccccc5N(C(=O)OCc5ccccc5)[C@H]4CC1)[C@@H]32

>  <formal_benchmark_eligible>  (16) 
false

$$$$
Compound 32
     RDKit          2D

 35 40  0  0  0  0  0  0  0  0999 V2000
   -2.0000   -1.2000    0.0000 C   0  0  0  0  0  0  0  0  0  0  0  0
   -3.0000   -1.6000    0.0000 C   0  0  0  0  0  0  0  0  0  0  0  0
   -3.9000   -0.8000    0.0000 C   0  0  0  0  0  0  0  0  0  0  0  0
   -3.5000    0.3000    0.0000 C   0  0  0  0  0  0  0  0  0  0  0  0
   -2.4000    0.6000    0.0000 C   0  0  0  0  0  0  0  0  0  0  0  0
   -1.6000   -0.2000    0.0000 C   0  0  0  0  0  0  0  0  0  0  0  0
   -0.9000   -1.9000    0.0000 N   0  0  0  0  0  0  0  0  0  0  0  0
    0.0000   -1.2000    0.0000 C   0  0  0  0  0  0  0  0  0  0  0  0
   -0.4000   -0.2000    0.0000 C   0  0  0  0  0  0  0  0  0  0  0  0
    1.0000   -1.4000    0.0000 C   0  0  0  0  0  0  0  0  0  0  0  0
    1.8000   -0.4000    0.0000 C   0  0  0  0  0  0  0  0  0  0  0  0
    1.5000    0.7000    0.0000 C   0  0  0  0  0  0  0  0  0  0  0  0
    0.3000    0.9500    0.0000 C   0  0  0  0  0  0  0  0  0  0  0  0
    0.0000    2.0000    0.0000 N   0  0  0  0  0  0  0  0  0  0  0  0
   -1.2000    2.0000    0.0000 C   0  0  0  0  0  0  0  0  0  0  0  0
   -1.2000    0.8500    0.0000 C   0  0  0  0  0  0  0  0  0  0  0  0
    0.7500    3.0000    0.0000 C   0  0  0  0  0  0  0  0  0  0  0  0
    1.8500    2.7500    0.0000 C   0  0  0  0  0  0  0  0  0  0  0  0
    2.2000    1.6500    0.0000 C   0  0  0  0  0  0  0  0  0  0  0  0
    2.6000    0.4500    0.0000 C   0  0  0  0  0  0  0  0  0  0  0  0
   -0.9000   -3.1000    0.0000 C   0  0  0  0  0  0  0  0  0  0  0  0
   -1.8000   -3.6000    0.0000 O   0  0  0  0  0  0  0  0  0  0  0  0
    0.0000   -3.6000    0.0000 O   0  0  0  0  0  0  0  0  0  0  0  0
    0.0000   -4.7000    0.0000 C   0  0  0  0  0  0  0  0  0  0  0  0
    0.0000   -5.8000    0.0000 C   0  0  0  0  0  0  0  0  0  0  0  0
    0.8660   -6.3000    0.0000 C   0  0  0  0  0  0  0  0  0  0  0  0
    0.8660   -7.3000    0.0000 C   0  0  0  0  0  0  0  0  0  0  0  0
    0.0000   -7.8000    0.0000 C   0  0  0  0  0  0  0  0  0  0  0  0
   -0.8660   -7.3000    0.0000 C   0  0  0  0  0  0  0  0  0  0  0  0
   -0.8660   -6.3000    0.0000 C   0  0  0  0  0  0  0  0  0  0  0  0
    0.1500    4.0000    0.0000 O   0  0  0  0  0  0  0  0  0  0  0  0
   -2.1000    2.7000    0.0000 O   0  0  0  0  0  0  0  0  0  0  0  0
    2.9000   -0.6500    0.0000 C   0  0  0  0  0  0  0  0  0  0  0  0
    3.8000   -1.0500    0.0000 O   0  0  0  0  0  0  0  0  0  0  0  0
    4.4000   -1.8500    0.0000 C   0  0  0  0  0  0  0  0  0  0  0  0
  1  2  2  0
  2  3  1  0
  3  4  2  0
  4  5  1  0
  5  6  2  0
  6  1  1  0
  1  7  1  0
  7  8  1  0
  8  9  1  0
  9  6  1  0
  9 13  1  0
 13 12  1  0
 12 11  1  0
 11 10  1  0
  8 10  1  6
 14 15  1  0
 15 16  1  0
 14 17  1  0
 17 18  1  0
 18 19  1  0
  9 16  1  1
 13 14  1  1
 12 19  1  0
 12 20  1  6
  7 21  1  0
 21 22  2  0
 21 23  1  0
 23 24  1  0
 24 25  1  0
 25 26  2  0
 26 27  1  0
 27 28  2  0
 28 29  1  0
 29 30  2  0
 30 25  1  0
 17 31  2  0
 15 32  1  0
 20 33  2  0
 33 34  1  0
 34 35  1  0
M  END
>  <molecule_id>  (17) 
paper-0ae671ac9a8bbe22:compound:32

>  <label>  (17) 
32

>  <structure_basis>  (17) 
source_drawing_transcription

>  <review_status>  (17) 
pending_independent_chemist_review

>  <canonical_isomeric_smiles>  (17) 
CO/C=C/[C@]12CCC(=O)N3C(O)C[C@@]4(c5ccccc5N(C(=O)OCc5ccccc5)[C@H]4CC1)[C@@H]32

>  <formal_benchmark_eligible>  (17) 
false

$$$$
Compound 33
     RDKit          2D

 32 37  0  0  0  0  0  0  0  0999 V2000
   -2.0000   -1.2000    0.0000 C   0  0  0  0  0  0  0  0  0  0  0  0
   -3.0000   -1.6000    0.0000 C   0  0  0  0  0  0  0  0  0  0  0  0
   -3.9000   -0.8000    0.0000 C   0  0  0  0  0  0  0  0  0  0  0  0
   -3.5000    0.3000    0.0000 C   0  0  0  0  0  0  0  0  0  0  0  0
   -2.4000    0.6000    0.0000 C   0  0  0  0  0  0  0  0  0  0  0  0
   -1.6000   -0.2000    0.0000 C   0  0  0  0  0  0  0  0  0  0  0  0
   -0.9000   -1.9000    0.0000 N   0  0  0  0  0  0  0  0  0  0  0  0
    0.0000   -1.2000    0.0000 C   0  0  0  0  0  0  0  0  0  0  0  0
   -0.4000   -0.2000    0.0000 C   0  0  0  0  0  0  0  0  0  0  0  0
    1.0000   -1.4000    0.0000 C   0  0  0  0  0  0  0  0  0  0  0  0
    1.8000   -0.4000    0.0000 C   0  0  0  0  0  0  0  0  0  0  0  0
    1.5000    0.7000    0.0000 C   0  0  0  0  0  0  0  0  0  0  0  0
    0.3000    0.9500    0.0000 C   0  0  0  0  0  0  0  0  0  0  0  0
    0.0000    2.0000    0.0000 N   0  0  0  0  0  0  0  0  0  0  0  0
   -1.2000    2.0000    0.0000 C   0  0  0  0  0  0  0  0  0  0  0  0
   -1.2000    0.8500    0.0000 C   0  0  0  0  0  0  0  0  0  0  0  0
    0.7500    3.0000    0.0000 C   0  0  0  0  0  0  0  0  0  0  0  0
    1.8500    2.7500    0.0000 C   0  0  0  0  0  0  0  0  0  0  0  0
    2.2000    1.6500    0.0000 C   0  0  0  0  0  0  0  0  0  0  0  0
    2.6000    0.4500    0.0000 C   0  0  0  0  0  0  0  0  0  0  0  0
    2.9000   -0.7000    0.0000 C   0  0  0  0  0  0  0  0  0  0  0  0
   -0.9000   -3.1000    0.0000 C   0  0  0  0  0  0  0  0  0  0  0  0
   -1.8000   -3.6000    0.0000 O   0  0  0  0  0  0  0  0  0  0  0  0
    0.0000   -3.6000    0.0000 O   0  0  0  0  0  0  0  0  0  0  0  0
    0.0000   -4.7000    0.0000 C   0  0  0  0  0  0  0  0  0  0  0  0
    0.0000   -5.8000    0.0000 C   0  0  0  0  0  0  0  0  0  0  0  0
    0.8660   -6.3000    0.0000 C   0  0  0  0  0  0  0  0  0  0  0  0
    0.8660   -7.3000    0.0000 C   0  0  0  0  0  0  0  0  0  0  0  0
    0.0000   -7.8000    0.0000 C   0  0  0  0  0  0  0  0  0  0  0  0
   -0.8660   -7.3000    0.0000 C   0  0  0  0  0  0  0  0  0  0  0  0
   -0.8660   -6.3000    0.0000 C   0  0  0  0  0  0  0  0  0  0  0  0
    3.8000   -1.1000    0.0000 O   0  0  0  0  0  0  0  0  0  0  0  0
  1  2  2  0
  2  3  1  0
  3  4  2  0
  4  5  1  0
  5  6  2  0
  6  1  1  0
  1  7  1  0
  7  8  1  0
  8  9  1  0
  9  6  1  0
  9 13  1  0
 13 12  1  0
 12 11  1  0
 11 10  1  0
  8 10  1  6
 14 15  1  0
 15 16  1  0
 14 17  1  0
 17 18  1  0
 18 19  1  0
 20 21  1  0
  9 16  1  1
 13 14  1  1
 12 19  1  0
 12 20  1  6
  7 22  1  0
 22 23  2  0
 22 24  1  0
 24 25  1  0
 25 26  1  0
 26 27  2  0
 27 28  1  0
 28 29  2  0
 29 30  1  0
 30 31  2  0
 31 26  1  0
 21 32  1  0
M  END
>  <molecule_id>  (18) 
paper-0ae671ac9a8bbe22:compound:33

>  <label>  (18) 
33

>  <structure_basis>  (18) 
source_drawing_transcription

>  <review_status>  (18) 
pending_independent_chemist_review

>  <canonical_isomeric_smiles>  (18) 
O=C(OCc1ccccc1)N1c2ccccc2[C@@]23CCN4CCC[C@@](CCO)(CC[C@H]12)[C@H]43

>  <formal_benchmark_eligible>  (18) 
false

$$$$
(-)-Limaspermidine
     RDKit          2D

 22 26  0  0  0  0  0  0  0  0999 V2000
   -2.0000   -1.2000    0.0000 C   0  0  0  0  0  0  0  0  0  0  0  0
   -3.0000   -1.6000    0.0000 C   0  0  0  0  0  0  0  0  0  0  0  0
   -3.9000   -0.8000    0.0000 C   0  0  0  0  0  0  0  0  0  0  0  0
   -3.5000    0.3000    0.0000 C   0  0  0  0  0  0  0  0  0  0  0  0
   -2.4000    0.6000    0.0000 C   0  0  0  0  0  0  0  0  0  0  0  0
   -1.6000   -0.2000    0.0000 C   0  0  0  0  0  0  0  0  0  0  0  0
   -0.9000   -1.9000    0.0000 N   0  0  0  0  0  0  0  0  0  0  0  0
    0.0000   -1.2000    0.0000 C   0  0  0  0  0  0  0  0  0  0  0  0
   -0.4000   -0.2000    0.0000 C   0  0  0  0  0  0  0  0  0  0  0  0
    1.0000   -1.4000    0.0000 C   0  0  0  0  0  0  0  0  0  0  0  0
    1.8000   -0.4000    0.0000 C   0  0  0  0  0  0  0  0  0  0  0  0
    1.5000    0.7000    0.0000 C   0  0  0  0  0  0  0  0  0  0  0  0
    0.3000    0.9500    0.0000 C   0  0  0  0  0  0  0  0  0  0  0  0
    0.0000    2.0000    0.0000 N   0  0  0  0  0  0  0  0  0  0  0  0
   -1.2000    2.0000    0.0000 C   0  0  0  0  0  0  0  0  0  0  0  0
   -1.2000    0.8500    0.0000 C   0  0  0  0  0  0  0  0  0  0  0  0
    0.7500    3.0000    0.0000 C   0  0  0  0  0  0  0  0  0  0  0  0
    1.8500    2.7500    0.0000 C   0  0  0  0  0  0  0  0  0  0  0  0
    2.2000    1.6500    0.0000 C   0  0  0  0  0  0  0  0  0  0  0  0
    2.6000    0.4500    0.0000 C   0  0  0  0  0  0  0  0  0  0  0  0
    2.9000   -0.7000    0.0000 C   0  0  0  0  0  0  0  0  0  0  0  0
    3.8000   -1.1000    0.0000 O   0  0  0  0  0  0  0  0  0  0  0  0
  1  2  2  0
  2  3  1  0
  3  4  2  0
  4  5  1  0
  5  6  2  0
  6  1  1  0
  1  7  1  0
  7  8  1  0
  8  9  1  0
  9  6  1  0
  9 13  1  0
 13 12  1  0
 12 11  1  0
 11 10  1  0
  8 10  1  6
 14 15  1  0
 15 16  1  0
 14 17  1  0
 17 18  1  0
 18 19  1  0
 20 21  1  0
  9 16  1  1
 13 14  1  1
 12 19  1  0
 12 20  1  6
 21 22  1  0
M  END
>  <molecule_id>  (19) 
paper-0ae671ac9a8bbe22:compound:8

>  <label>  (19) 
8

>  <structure_basis>  (19) 
source_drawing_transcription

>  <review_status>  (19) 
pending_independent_chemist_review

>  <canonical_isomeric_smiles>  (19) 
OCC[C@]12CCCN3CC[C@@]4(c5ccccc5N[C@H]4CC1)[C@@H]32

>  <formal_benchmark_eligible>  (19) 
false

$$$$
Compound 34
     RDKit          2D

 25 29  0  0  0  0  0  0  0  0999 V2000
   -2.0000   -1.2000    0.0000 C   0  0  0  0  0  0  0  0  0  0  0  0
   -3.0000   -1.6000    0.0000 C   0  0  0  0  0  0  0  0  0  0  0  0
   -3.9000   -0.8000    0.0000 C   0  0  0  0  0  0  0  0  0  0  0  0
   -3.5000    0.3000    0.0000 C   0  0  0  0  0  0  0  0  0  0  0  0
   -2.4000    0.6000    0.0000 C   0  0  0  0  0  0  0  0  0  0  0  0
   -1.6000   -0.2000    0.0000 C   0  0  0  0  0  0  0  0  0  0  0  0
   -0.9000   -1.9000    0.0000 N   0  0  0  0  0  0  0  0  0  0  0  0
    0.0000   -1.2000    0.0000 C   0  0  0  0  0  0  0  0  0  0  0  0
   -0.4000   -0.2000    0.0000 C   0  0  0  0  0  0  0  0  0  0  0  0
    1.0000   -1.4000    0.0000 C   0  0  0  0  0  0  0  0  0  0  0  0
    1.8000   -0.4000    0.0000 C   0  0  0  0  0  0  0  0  0  0  0  0
    1.5000    0.7000    0.0000 C   0  0  0  0  0  0  0  0  0  0  0  0
    0.3000    0.9500    0.0000 C   0  0  0  0  0  0  0  0  0  0  0  0
    0.0000    2.0000    0.0000 N   0  0  0  0  0  0  0  0  0  0  0  0
   -1.2000    2.0000    0.0000 C   0  0  0  0  0  0  0  0  0  0  0  0
   -1.2000    0.8500    0.0000 C   0  0  0  0  0  0  0  0  0  0  0  0
    0.7500    3.0000    0.0000 C   0  0  0  0  0  0  0  0  0  0  0  0
    1.8500    2.7500    0.0000 C   0  0  0  0  0  0  0  0  0  0  0  0
    2.2000    1.6500    0.0000 C   0  0  0  0  0  0  0  0  0  0  0  0
    2.6000    0.4500    0.0000 C   0  0  0  0  0  0  0  0  0  0  0  0
    2.9000   -0.7000    0.0000 C   0  0  0  0  0  0  0  0  0  0  0  0
    3.8000   -1.1000    0.0000 O   0  0  0  0  0  0  0  0  0  0  0  0
   -0.9000   -3.0000    0.0000 C   0  0  0  0  0  0  0  0  0  0  0  0
   -1.8000   -3.6000    0.0000 O   0  0  0  0  0  0  0  0  0  0  0  0
    0.0000   -3.6000    0.0000 C   0  0  0  0  0  0  0  0  0  0  0  0
  1  2  2  0
  2  3  1  0
  3  4  2  0
  4  5  1  0
  5  6  2  0
  6  1  1  0
  1  7  1  0
  7  8  1  0
  8  9  1  0
  9  6  1  0
  9 13  1  0
 13 12  1  0
 12 11  1  0
 11 10  1  0
  8 10  1  6
 14 15  1  0
 15 16  1  0
 14 17  1  0
 17 18  1  0
 18 19  1  0
 20 21  1  0
  9 16  1  1
 13 14  1  1
 12 19  1  0
 12 20  1  6
 21 22  1  0
  7 23  1  0
 23 24  2  0
 23 25  1  0
M  END
>  <molecule_id>  (20) 
paper-0ae671ac9a8bbe22:compound:34

>  <label>  (20) 
34

>  <structure_basis>  (20) 
source_drawing_transcription

>  <review_status>  (20) 
pending_independent_chemist_review

>  <canonical_isomeric_smiles>  (20) 
CC(=O)N1c2ccccc2[C@@]23CCN4CCC[C@@](CCO)(CC[C@H]12)[C@H]43

>  <formal_benchmark_eligible>  (20) 
false

$$$$
Compound 35
     RDKit          2D

 25 29  0  0  0  0  0  0  0  0999 V2000
   -2.0000   -1.2000    0.0000 C   0  0  0  0  0  0  0  0  0  0  0  0
   -3.0000   -1.6000    0.0000 C   0  0  0  0  0  0  0  0  0  0  0  0
   -3.9000   -0.8000    0.0000 C   0  0  0  0  0  0  0  0  0  0  0  0
   -3.5000    0.3000    0.0000 C   0  0  0  0  0  0  0  0  0  0  0  0
   -2.4000    0.6000    0.0000 C   0  0  0  0  0  0  0  0  0  0  0  0
   -1.6000   -0.2000    0.0000 C   0  0  0  0  0  0  0  0  0  0  0  0
   -0.9000   -1.9000    0.0000 N   0  0  0  0  0  0  0  0  0  0  0  0
    0.0000   -1.2000    0.0000 C   0  0  0  0  0  0  0  0  0  0  0  0
   -0.4000   -0.2000    0.0000 C   0  0  0  0  0  0  0  0  0  0  0  0
    1.0000   -1.4000    0.0000 C   0  0  0  0  0  0  0  0  0  0  0  0
    1.8000   -0.4000    0.0000 C   0  0  0  0  0  0  0  0  0  0  0  0
    1.5000    0.7000    0.0000 C   0  0  0  0  0  0  0  0  0  0  0  0
    0.3000    0.9500    0.0000 C   0  0  0  0  0  0  0  0  0  0  0  0
    0.0000    2.0000    0.0000 N   0  0  0  0  0  0  0  0  0  0  0  0
   -1.2000    2.0000    0.0000 C   0  0  0  0  0  0  0  0  0  0  0  0
   -1.2000    0.8500    0.0000 C   0  0  0  0  0  0  0  0  0  0  0  0
    0.7500    3.0000    0.0000 C   0  0  0  0  0  0  0  0  0  0  0  0
    1.8500    2.7500    0.0000 C   0  0  0  0  0  0  0  0  0  0  0  0
    2.2000    1.6500    0.0000 C   0  0  0  0  0  0  0  0  0  0  0  0
    2.6000    0.4500    0.0000 C   0  0  0  0  0  0  0  0  0  0  0  0
    2.9000   -0.7000    0.0000 C   0  0  0  0  0  0  0  0  0  0  0  0
    3.8000   -1.1000    0.0000 O   0  0  0  0  0  0  0  0  0  0  0  0
   -0.9000   -3.0000    0.0000 C   0  0  0  0  0  0  0  0  0  0  0  0
   -1.8000   -3.6000    0.0000 O   0  0  0  0  0  0  0  0  0  0  0  0
    0.0000   -3.6000    0.0000 C   0  0  0  0  0  0  0  0  0  0  0  0
  1  2  2  0
  2  3  1  0
  3  4  2  0
  4  5  1  0
  5  6  2  0
  6  1  1  0
  1  7  1  0
  7  8  1  0
  8  9  1  0
  9  6  1  0
  9 13  1  0
 13 12  1  0
 12 11  1  0
 11 10  1  0
  8 10  1  6
 14 15  1  0
 15 16  1  0
 14 17  1  0
 17 18  1  0
 18 19  1  0
 20 21  1  0
  9 16  1  1
 13 14  1  1
 12 19  1  0
 12 20  1  6
 21 22  2  0
  7 23  1  0
 23 24  2  0
 23 25  1  0
M  END
>  <molecule_id>  (21) 
paper-0ae671ac9a8bbe22:compound:35

>  <label>  (21) 
35

>  <structure_basis>  (21) 
source_drawing_transcription

>  <review_status>  (21) 
pending_independent_chemist_review

>  <canonical_isomeric_smiles>  (21) 
CC(=O)N1c2ccccc2[C@@]23CCN4CCC[C@@](CC=O)(CC[C@H]12)[C@H]43

>  <formal_benchmark_eligible>  (21) 
false

$$$$
(+)-12-Demethoxy-N-acetylcylindrocarine
     RDKit          2D

 27 31  0  0  0  0  0  0  0  0999 V2000
   -2.0000   -1.2000    0.0000 C   0  0  0  0  0  0  0  0  0  0  0  0
   -3.0000   -1.6000    0.0000 C   0  0  0  0  0  0  0  0  0  0  0  0
   -3.9000   -0.8000    0.0000 C   0  0  0  0  0  0  0  0  0  0  0  0
   -3.5000    0.3000    0.0000 C   0  0  0  0  0  0  0  0  0  0  0  0
   -2.4000    0.6000    0.0000 C   0  0  0  0  0  0  0  0  0  0  0  0
   -1.6000   -0.2000    0.0000 C   0  0  0  0  0  0  0  0  0  0  0  0
   -0.9000   -1.9000    0.0000 N   0  0  0  0  0  0  0  0  0  0  0  0
    0.0000   -1.2000    0.0000 C   0  0  0  0  0  0  0  0  0  0  0  0
   -0.4000   -0.2000    0.0000 C   0  0  0  0  0  0  0  0  0  0  0  0
    1.0000   -1.4000    0.0000 C   0  0  0  0  0  0  0  0  0  0  0  0
    1.8000   -0.4000    0.0000 C   0  0  0  0  0  0  0  0  0  0  0  0
    1.5000    0.7000    0.0000 C   0  0  0  0  0  0  0  0  0  0  0  0
    0.3000    0.9500    0.0000 C   0  0  0  0  0  0  0  0  0  0  0  0
    0.0000    2.0000    0.0000 N   0  0  0  0  0  0  0  0  0  0  0  0
   -1.2000    2.0000    0.0000 C   0  0  0  0  0  0  0  0  0  0  0  0
   -1.2000    0.8500    0.0000 C   0  0  0  0  0  0  0  0  0  0  0  0
    0.7500    3.0000    0.0000 C   0  0  0  0  0  0  0  0  0  0  0  0
    1.8500    2.7500    0.0000 C   0  0  0  0  0  0  0  0  0  0  0  0
    2.2000    1.6500    0.0000 C   0  0  0  0  0  0  0  0  0  0  0  0
    2.6000    0.4500    0.0000 C   0  0  0  0  0  0  0  0  0  0  0  0
    2.9000   -0.7000    0.0000 C   0  0  0  0  0  0  0  0  0  0  0  0
    3.8000   -1.1000    0.0000 O   0  0  0  0  0  0  0  0  0  0  0  0
   -0.9000   -3.0000    0.0000 C   0  0  0  0  0  0  0  0  0  0  0  0
   -1.8000   -3.6000    0.0000 O   0  0  0  0  0  0  0  0  0  0  0  0
    0.0000   -3.6000    0.0000 C   0  0  0  0  0  0  0  0  0  0  0  0
    3.8000   -0.3000    0.0000 O   0  0  0  0  0  0  0  0  0  0  0  0
    4.4000   -1.1000    0.0000 C   0  0  0  0  0  0  0  0  0  0  0  0
  1  2  2  0
  2  3  1  0
  3  4  2  0
  4  5  1  0
  5  6  2  0
  6  1  1  0
  1  7  1  0
  7  8  1  0
  8  9  1  0
  9  6  1  0
  9 13  1  0
 13 12  1  0
 12 11  1  0
 11 10  1  0
  8 10  1  6
 14 15  1  0
 15 16  1  0
 14 17  1  0
 17 18  1  0
 18 19  1  0
 20 21  1  0
  9 16  1  1
 13 14  1  1
 12 19  1  0
 12 20  1  6
 21 22  2  0
  7 23  1  0
 23 24  2  0
 23 25  1  0
 21 26  1  0
 26 27  1  0
M  END
>  <molecule_id>  (22) 
paper-0ae671ac9a8bbe22:compound:9

>  <label>  (22) 
9

>  <structure_basis>  (22) 
source_drawing_transcription

>  <review_status>  (22) 
pending_independent_chemist_review

>  <canonical_isomeric_smiles>  (22) 
COC(=O)C[C@]12CCCN3CC[C@@]4(c5ccccc5N(C(C)=O)[C@H]4CC1)[C@@H]32

>  <formal_benchmark_eligible>  (22) 
false

$$$$
(-)-N-Acetylaspidoalbidine
     RDKit          2D

 25 30  0  0  0  0  0  0  0  0999 V2000
   -2.0000   -1.2000    0.0000 C   0  0  0  0  0  0  0  0  0  0  0  0
   -3.0000   -1.6000    0.0000 C   0  0  0  0  0  0  0  0  0  0  0  0
   -3.9000   -0.8000    0.0000 C   0  0  0  0  0  0  0  0  0  0  0  0
   -3.5000    0.3000    0.0000 C   0  0  0  0  0  0  0  0  0  0  0  0
   -2.4000    0.6000    0.0000 C   0  0  0  0  0  0  0  0  0  0  0  0
   -1.6000   -0.2000    0.0000 C   0  0  0  0  0  0  0  0  0  0  0  0
   -0.9000   -1.9000    0.0000 N   0  0  0  0  0  0  0  0  0  0  0  0
    0.0000   -1.2000    0.0000 C   0  0  0  0  0  0  0  0  0  0  0  0
   -0.4000   -0.2000    0.0000 C   0  0  0  0  0  0  0  0  0  0  0  0
    1.0000   -1.4000    0.0000 C   0  0  0  0  0  0  0  0  0  0  0  0
    1.8000   -0.4000    0.0000 C   0  0  0  0  0  0  0  0  0  0  0  0
    1.5000    0.7000    0.0000 C   0  0  0  0  0  0  0  0  0  0  0  0
    0.3000    0.9500    0.0000 C   0  0  0  0  0  0  0  0  0  0  0  0
    0.0000    2.0000    0.0000 N   0  0  0  0  0  0  0  0  0  0  0  0
   -1.2000    2.0000    0.0000 C   0  0  0  0  0  0  0  0  0  0  0  0
   -1.2000    0.8500    0.0000 C   0  0  0  0  0  0  0  0  0  0  0  0
    0.7500    3.0000    0.0000 C   0  0  0  0  0  0  0  0  0  0  0  0
    1.8500    2.7500    0.0000 C   0  0  0  0  0  0  0  0  0  0  0  0
    2.2000    1.6500    0.0000 C   0  0  0  0  0  0  0  0  0  0  0  0
    2.6000    0.4500    0.0000 C   0  0  0  0  0  0  0  0  0  0  0  0
    2.8000    1.6000    0.0000 C   0  0  0  0  0  0  0  0  0  0  0  0
    0.9000    1.8000    0.0000 O   0  0  0  0  0  0  0  0  0  0  0  0
   -0.9000   -3.0000    0.0000 C   0  0  0  0  0  0  0  0  0  0  0  0
   -1.8000   -3.6000    0.0000 O   0  0  0  0  0  0  0  0  0  0  0  0
    0.0000   -3.6000    0.0000 C   0  0  0  0  0  0  0  0  0  0  0  0
  1  2  2  0
  2  3  1  0
  3  4  2  0
  4  5  1  0
  5  6  2  0
  6  1  1  0
  1  7  1  0
  7  8  1  0
  8  9  1  0
  9  6  1  0
  9 13  1  0
 13 12  1  0
 12 11  1  1
 11 10  1  0
  8 10  1  6
 14 15  1  0
 15 16  1  0
 14 17  1  0
 17 18  1  0
 18 19  1  0
 20 21  1  0
  9 16  1  1
 13 14  1  0
 12 19  1  0
 12 20  1  0
 21 22  1  0
  7 23  1  0
 23 24  2  0
 23 25  1  0
 13 22  1  6
M  END
>  <molecule_id>  (23) 
paper-0ae671ac9a8bbe22:compound:10

>  <label>  (23) 
10

>  <structure_basis>  (23) 
source_drawing_transcription

>  <review_status>  (23) 
pending_independent_chemist_review

>  <canonical_isomeric_smiles>  (23) 
CC(=O)N1c2ccccc2[C@]23CCN4CCC[C@@]5(CCO[C@]452)CC[C@H]13

>  <formal_benchmark_eligible>  (23) 
false

$$$$
(-)-Haplocidine
     RDKit          2D

 26 31  0  0  0  0  0  0  0  0999 V2000
   -2.0000   -1.2000    0.0000 C   0  0  0  0  0  0  0  0  0  0  0  0
   -3.0000   -1.6000    0.0000 C   0  0  0  0  0  0  0  0  0  0  0  0
   -3.9000   -0.8000    0.0000 C   0  0  0  0  0  0  0  0  0  0  0  0
   -3.5000    0.3000    0.0000 C   0  0  0  0  0  0  0  0  0  0  0  0
   -2.4000    0.6000    0.0000 C   0  0  0  0  0  0  0  0  0  0  0  0
   -1.6000   -0.2000    0.0000 C   0  0  0  0  0  0  0  0  0  0  0  0
   -0.9000   -1.9000    0.0000 N   0  0  0  0  0  0  0  0  0  0  0  0
    0.0000   -1.2000    0.0000 C   0  0  0  0  0  0  0  0  0  0  0  0
   -0.4000   -0.2000    0.0000 C   0  0  0  0  0  0  0  0  0  0  0  0
    1.0000   -1.4000    0.0000 C   0  0  0  0  0  0  0  0  0  0  0  0
    1.8000   -0.4000    0.0000 C   0  0  0  0  0  0  0  0  0  0  0  0
    1.5000    0.7000    0.0000 C   0  0  0  0  0  0  0  0  0  0  0  0
    0.3000    0.9500    0.0000 C   0  0  0  0  0  0  0  0  0  0  0  0
    0.0000    2.0000    0.0000 N   0  0  0  0  0  0  0  0  0  0  0  0
   -1.2000    2.0000    0.0000 C   0  0  0  0  0  0  0  0  0  0  0  0
   -1.2000    0.8500    0.0000 C   0  0  0  0  0  0  0  0  0  0  0  0
    0.7500    3.0000    0.0000 C   0  0  0  0  0  0  0  0  0  0  0  0
    1.8500    2.7500    0.0000 C   0  0  0  0  0  0  0  0  0  0  0  0
    2.2000    1.6500    0.0000 C   0  0  0  0  0  0  0  0  0  0  0  0
    2.6000    0.4500    0.0000 C   0  0  0  0  0  0  0  0  0  0  0  0
    2.8000    1.6000    0.0000 C   0  0  0  0  0  0  0  0  0  0  0  0
    0.9000    1.8000    0.0000 O   0  0  0  0  0  0  0  0  0  0  0  0
   -0.9000   -3.0000    0.0000 C   0  0  0  0  0  0  0  0  0  0  0  0
   -1.8000   -3.6000    0.0000 O   0  0  0  0  0  0  0  0  0  0  0  0
    0.0000   -3.6000    0.0000 C   0  0  0  0  0  0  0  0  0  0  0  0
   -2.1000   -2.0000    0.0000 O   0  0  0  0  0  0  0  0  0  0  0  0
  1  2  2  0
  2  3  1  0
  3  4  2  0
  4  5  1  0
  5  6  2  0
  6  1  1  0
  1  7  1  0
  7  8  1  0
  8  9  1  0
  9  6  1  0
  9 13  1  0
 13 12  1  0
 12 11  1  1
 11 10  1  0
  8 10  1  6
 14 15  1  0
 15 16  1  0
 14 17  1  0
 17 18  1  0
 18 19  1  0
 20 21  1  0
  9 16  1  1
 13 14  1  0
 12 19  1  0
 12 20  1  0
 21 22  1  0
  7 23  1  0
 23 24  2  0
 23 25  1  0
 13 22  1  6
  2 26  1  0
M  END
>  <molecule_id>  (24) 
paper-0ae671ac9a8bbe22:compound:11

>  <label>  (24) 
11

>  <structure_basis>  (24) 
source_drawing_transcription

>  <review_status>  (24) 
pending_independent_chemist_review

>  <canonical_isomeric_smiles>  (24) 
CC(=O)N1c2c(O)cccc2[C@]23CCN4CCC[C@@]5(CCO[C@]452)CC[C@H]13

>  <formal_benchmark_eligible>  (24) 
false

$$$$
Compound 36
     RDKit          2D

 33 38  0  0  0  0  0  0  0  0999 V2000
   -2.0000   -1.2000    0.0000 C   0  0  0  0  0  0  0  0  0  0  0  0
   -3.0000   -1.6000    0.0000 C   0  0  0  0  0  0  0  0  0  0  0  0
   -3.9000   -0.8000    0.0000 C   0  0  0  0  0  0  0  0  0  0  0  0
   -3.5000    0.3000    0.0000 C   0  0  0  0  0  0  0  0  0  0  0  0
   -2.4000    0.6000    0.0000 C   0  0  0  0  0  0  0  0  0  0  0  0
   -1.6000   -0.2000    0.0000 C   0  0  0  0  0  0  0  0  0  0  0  0
   -0.9000   -1.9000    0.0000 N   0  0  0  0  0  0  0  0  0  0  0  0
    0.0000   -1.2000    0.0000 C   0  0  0  0  0  0  0  0  0  0  0  0
   -0.4000   -0.2000    0.0000 C   0  0  0  0  0  0  0  0  0  0  0  0
    1.0000   -1.4000    0.0000 C   0  0  0  0  0  0  0  0  0  0  0  0
    1.8000   -0.4000    0.0000 C   0  0  0  0  0  0  0  0  0  0  0  0
    1.5000    0.7000    0.0000 C   0  0  0  0  0  0  0  0  0  0  0  0
    0.3000    0.9500    0.0000 C   0  0  0  0  0  0  0  0  0  0  0  0
    0.0000    2.0000    0.0000 N   0  0  0  0  0  0  0  0  0  0  0  0
   -1.2000    2.0000    0.0000 C   0  0  0  0  0  0  0  0  0  0  0  0
   -1.2000    0.8500    0.0000 C   0  0  0  0  0  0  0  0  0  0  0  0
    0.7500    3.0000    0.0000 C   0  0  0  0  0  0  0  0  0  0  0  0
    1.8500    2.7500    0.0000 C   0  0  0  0  0  0  0  0  0  0  0  0
    2.2000    1.6500    0.0000 C   0  0  0  0  0  0  0  0  0  0  0  0
    2.6000    0.4500    0.0000 C   0  0  0  0  0  0  0  0  0  0  0  0
    2.9000   -0.7000    0.0000 C   0  0  0  0  0  0  0  0  0  0  0  0
   -0.9000   -3.1000    0.0000 C   0  0  0  0  0  0  0  0  0  0  0  0
   -1.8000   -3.6000    0.0000 O   0  0  0  0  0  0  0  0  0  0  0  0
    0.0000   -3.6000    0.0000 O   0  0  0  0  0  0  0  0  0  0  0  0
    0.0000   -4.7000    0.0000 C   0  0  0  0  0  0  0  0  0  0  0  0
    0.0000   -5.8000    0.0000 C   0  0  0  0  0  0  0  0  0  0  0  0
    0.8660   -6.3000    0.0000 C   0  0  0  0  0  0  0  0  0  0  0  0
    0.8660   -7.3000    0.0000 C   0  0  0  0  0  0  0  0  0  0  0  0
    0.0000   -7.8000    0.0000 C   0  0  0  0  0  0  0  0  0  0  0  0
   -0.8660   -7.3000    0.0000 C   0  0  0  0  0  0  0  0  0  0  0  0
   -0.8660   -6.3000    0.0000 C   0  0  0  0  0  0  0  0  0  0  0  0
    3.8000   -1.1000    0.0000 O   0  0  0  0  0  0  0  0  0  0  0  0
    0.1500    4.0000    0.0000 O   0  0  0  0  0  0  0  0  0  0  0  0
  1  2  2  0
  2  3  1  0
  3  4  2  0
  4  5  1  0
  5  6  2  0
  6  1  1  0
  1  7  1  0
  7  8  1  0
  8  9  1  0
  9  6  1  0
  9 13  1  0
 13 12  1  0
 12 11  1  0
 11 10  1  0
  8 10  1  6
 14 15  1  0
 15 16  1  0
 14 17  1  0
 17 18  1  0
 18 19  1  0
 20 21  1  0
  9 16  1  1
 13 14  1  1
 12 19  1  0
 12 20  1  6
  7 22  1  0
 22 23  2  0
 22 24  1  0
 24 25  1  0
 25 26  1  0
 26 27  2  0
 27 28  1  0
 28 29  2  0
 29 30  1  0
 30 31  2  0
 31 26  1  0
 21 32  1  0
 17 33  2  0
M  END
>  <molecule_id>  (25) 
paper-0ae671ac9a8bbe22:compound:36

>  <label>  (25) 
36

>  <structure_basis>  (25) 
source_drawing_transcription

>  <review_status>  (25) 
pending_independent_chemist_review

>  <canonical_isomeric_smiles>  (25) 
O=C1CC[C@@]2(CCO)CC[C@@H]3N(C(=O)OCc4ccccc4)c4ccccc4[C@@]34CCN1[C@@H]24

>  <formal_benchmark_eligible>  (25) 
false

$$$$
Compound 37
     RDKit          2D

 40 45  0  0  0  0  0  0  0  0999 V2000
   -2.0000   -1.2000    0.0000 C   0  0  0  0  0  0  0  0  0  0  0  0
   -3.0000   -1.6000    0.0000 C   0  0  0  0  0  0  0  0  0  0  0  0
   -3.9000   -0.8000    0.0000 C   0  0  0  0  0  0  0  0  0  0  0  0
   -3.5000    0.3000    0.0000 C   0  0  0  0  0  0  0  0  0  0  0  0
   -2.4000    0.6000    0.0000 C   0  0  0  0  0  0  0  0  0  0  0  0
   -1.6000   -0.2000    0.0000 C   0  0  0  0  0  0  0  0  0  0  0  0
   -0.9000   -1.9000    0.0000 N   0  0  0  0  0  0  0  0  0  0  0  0
    0.0000   -1.2000    0.0000 C   0  0  0  0  0  0  0  0  0  0  0  0
   -0.4000   -0.2000    0.0000 C   0  0  0  0  0  0  0  0  0  0  0  0
    1.0000   -1.4000    0.0000 C   0  0  0  0  0  0  0  0  0  0  0  0
    1.8000   -0.4000    0.0000 C   0  0  0  0  0  0  0  0  0  0  0  0
    1.5000    0.7000    0.0000 C   0  0  0  0  0  0  0  0  0  0  0  0
    0.3000    0.9500    0.0000 C   0  0  0  0  0  0  0  0  0  0  0  0
    0.0000    2.0000    0.0000 N   0  0  0  0  0  0  0  0  0  0  0  0
   -1.2000    2.0000    0.0000 C   0  0  0  0  0  0  0  0  0  0  0  0
   -1.2000    0.8500    0.0000 C   0  0  0  0  0  0  0  0  0  0  0  0
    0.7500    3.0000    0.0000 C   0  0  0  0  0  0  0  0  0  0  0  0
    1.8500    2.7500    0.0000 C   0  0  0  0  0  0  0  0  0  0  0  0
    2.2000    1.6500    0.0000 C   0  0  0  0  0  0  0  0  0  0  0  0
    2.6000    0.4500    0.0000 C   0  0  0  0  0  0  0  0  0  0  0  0
    2.9000   -0.7000    0.0000 C   0  0  0  0  0  0  0  0  0  0  0  0
   -0.9000   -3.1000    0.0000 C   0  0  0  0  0  0  0  0  0  0  0  0
   -1.8000   -3.6000    0.0000 O   0  0  0  0  0  0  0  0  0  0  0  0
    0.0000   -3.6000    0.0000 O   0  0  0  0  0  0  0  0  0  0  0  0
    0.0000   -4.7000    0.0000 C   0  0  0  0  0  0  0  0  0  0  0  0
    0.0000   -5.8000    0.0000 C   0  0  0  0  0  0  0  0  0  0  0  0
    0.8660   -6.3000    0.0000 C   0  0  0  0  0  0  0  0  0  0  0  0
    0.8660   -7.3000    0.0000 C   0  0  0  0  0  0  0  0  0  0  0  0
    0.0000   -7.8000    0.0000 C   0  0  0  0  0  0  0  0  0  0  0  0
   -0.8660   -7.3000    0.0000 C   0  0  0  0  0  0  0  0  0  0  0  0
   -0.8660   -6.3000    0.0000 C   0  0  0  0  0  0  0  0  0  0  0  0
    3.8000   -1.1000    0.0000 O   0  0  0  0  0  0  0  0  0  0  0  0
    0.1500    4.0000    0.0000 O   0  0  0  0  0  0  0  0  0  0  0  0
    4.7000   -1.4000    0.0000 Si  0  0  0  0  0  4  0  0  0  0  0  0
    5.0000   -0.4000    0.0000 C   0  0  0  0  0  0  0  0  0  0  0  0
    4.5000   -2.4000    0.0000 C   0  0  0  0  0  0  0  0  0  0  0  0
    5.8000   -1.3000    0.0000 C   0  0  0  0  0  0  0  0  0  0  0  0
    5.8000   -0.3000    0.0000 C   0  0  0  0  0  0  0  0  0  0  0  0
    6.8000   -1.3000    0.0000 C   0  0  0  0  0  0  0  0  0  0  0  0
    5.8000   -2.3000    0.0000 C   0  0  0  0  0  0  0  0  0  0  0  0
  1  2  2  0
  2  3  1  0
  3  4  2  0
  4  5  1  0
  5  6  2  0
  6  1  1  0
  1  7  1  0
  7  8  1  0
  8  9  1  0
  9  6  1  0
  9 13  1  0
 13 12  1  0
 12 11  1  0
 11 10  1  0
  8 10  1  6
 14 15  1  0
 15 16  1  0
 14 17  1  0
 17 18  1  0
 18 19  1  0
 20 21  1  0
  9 16  1  1
 13 14  1  1
 12 19  1  0
 12 20  1  6
  7 22  1  0
 22 23  2  0
 22 24  1  0
 24 25  1  0
 25 26  1  0
 26 27  2  0
 27 28  1  0
 28 29  2  0
 29 30  1  0
 30 31  2  0
 31 26  1  0
 21 32  1  0
 17 33  2  0
 32 34  1  0
 34 35  1  0
 34 36  1  0
 34 37  1  0
 37 38  1  0
 37 39  1  0
 37 40  1  0
M  END
>  <molecule_id>  (26) 
paper-0ae671ac9a8bbe22:compound:37

>  <label>  (26) 
37

>  <structure_basis>  (26) 
source_drawing_transcription

>  <review_status>  (26) 
pending_independent_chemist_review

>  <canonical_isomeric_smiles>  (26) 
CC(C)(C)[Si](C)(C)OCC[C@]12CCC(=O)N3CC[C@@]4(c5ccccc5N(C(=O)OCc5ccccc5)[C@H]4CC1)[C@@H]32

>  <formal_benchmark_eligible>  (26) 
false

$$$$
Compound 38
     RDKit          2D

 40 45  0  0  0  0  0  0  0  0999 V2000
   -2.0000   -1.2000    0.0000 C   0  0  0  0  0  0  0  0  0  0  0  0
   -3.0000   -1.6000    0.0000 C   0  0  0  0  0  0  0  0  0  0  0  0
   -3.9000   -0.8000    0.0000 C   0  0  0  0  0  0  0  0  0  0  0  0
   -3.5000    0.3000    0.0000 C   0  0  0  0  0  0  0  0  0  0  0  0
   -2.4000    0.6000    0.0000 C   0  0  0  0  0  0  0  0  0  0  0  0
   -1.6000   -0.2000    0.0000 C   0  0  0  0  0  0  0  0  0  0  0  0
   -0.9000   -1.9000    0.0000 N   0  0  0  0  0  0  0  0  0  0  0  0
    0.0000   -1.2000    0.0000 C   0  0  0  0  0  0  0  0  0  0  0  0
   -0.4000   -0.2000    0.0000 C   0  0  0  0  0  0  0  0  0  0  0  0
    1.0000   -1.4000    0.0000 C   0  0  0  0  0  0  0  0  0  0  0  0
    1.8000   -0.4000    0.0000 C   0  0  0  0  0  0  0  0  0  0  0  0
    1.5000    0.7000    0.0000 C   0  0  0  0  0  0  0  0  0  0  0  0
    0.3000    0.9500    0.0000 C   0  0  0  0  0  0  0  0  0  0  0  0
    0.0000    2.0000    0.0000 N   0  0  0  0  0  0  0  0  0  0  0  0
   -1.2000    2.0000    0.0000 C   0  0  0  0  0  0  0  0  0  0  0  0
   -1.2000    0.8500    0.0000 C   0  0  0  0  0  0  0  0  0  0  0  0
    0.7500    3.0000    0.0000 C   0  0  0  0  0  0  0  0  0  0  0  0
    1.8500    2.7500    0.0000 C   0  0  0  0  0  0  0  0  0  0  0  0
    2.2000    1.6500    0.0000 C   0  0  0  0  0  0  0  0  0  0  0  0
    2.6000    0.4500    0.0000 C   0  0  0  0  0  0  0  0  0  0  0  0
    2.9000   -0.7000    0.0000 C   0  0  0  0  0  0  0  0  0  0  0  0
   -0.9000   -3.1000    0.0000 C   0  0  0  0  0  0  0  0  0  0  0  0
   -1.8000   -3.6000    0.0000 O   0  0  0  0  0  0  0  0  0  0  0  0
    0.0000   -3.6000    0.0000 O   0  0  0  0  0  0  0  0  0  0  0  0
    0.0000   -4.7000    0.0000 C   0  0  0  0  0  0  0  0  0  0  0  0
    0.0000   -5.8000    0.0000 C   0  0  0  0  0  0  0  0  0  0  0  0
    0.8660   -6.3000    0.0000 C   0  0  0  0  0  0  0  0  0  0  0  0
    0.8660   -7.3000    0.0000 C   0  0  0  0  0  0  0  0  0  0  0  0
    0.0000   -7.8000    0.0000 C   0  0  0  0  0  0  0  0  0  0  0  0
   -0.8660   -7.3000    0.0000 C   0  0  0  0  0  0  0  0  0  0  0  0
   -0.8660   -6.3000    0.0000 C   0  0  0  0  0  0  0  0  0  0  0  0
    3.8000   -1.1000    0.0000 O   0  0  0  0  0  0  0  0  0  0  0  0
    0.1500    4.0000    0.0000 O   0  0  0  0  0  0  0  0  0  0  0  0
    4.7000   -1.4000    0.0000 Si  0  0  0  0  0  4  0  0  0  0  0  0
    5.0000   -0.4000    0.0000 C   0  0  0  0  0  0  0  0  0  0  0  0
    4.5000   -2.4000    0.0000 C   0  0  0  0  0  0  0  0  0  0  0  0
    5.8000   -1.3000    0.0000 C   0  0  0  0  0  0  0  0  0  0  0  0
    5.8000   -0.3000    0.0000 C   0  0  0  0  0  0  0  0  0  0  0  0
    6.8000   -1.3000    0.0000 C   0  0  0  0  0  0  0  0  0  0  0  0
    5.8000   -2.3000    0.0000 C   0  0  0  0  0  0  0  0  0  0  0  0
  1  2  2  0
  2  3  1  0
  3  4  2  0
  4  5  1  0
  5  6  2  0
  6  1  1  0
  1  7  1  0
  7  8  1  0
  8  9  1  0
  9  6  1  0
  9 13  1  0
 13 12  1  0
 12 11  1  0
 11 10  1  0
  8 10  1  6
 14 15  1  0
 15 16  1  0
 14 17  1  0
 17 18  1  0
 18 19  2  0
 20 21  1  0
  9 16  1  1
 13 14  1  1
 12 19  1  0
 12 20  1  6
  7 22  1  0
 22 23  2  0
 22 24  1  0
 24 25  1  0
 25 26  1  0
 26 27  2  0
 27 28  1  0
 28 29  2  0
 29 30  1  0
 30 31  2  0
 31 26  1  0
 21 32  1  0
 17 33  2  0
 32 34  1  0
 34 35  1  0
 34 36  1  0
 34 37  1  0
 37 38  1  0
 37 39  1  0
 37 40  1  0
M  END
>  <molecule_id>  (27) 
paper-0ae671ac9a8bbe22:compound:38

>  <label>  (27) 
38

>  <structure_basis>  (27) 
source_drawing_transcription

>  <review_status>  (27) 
pending_independent_chemist_review

>  <canonical_isomeric_smiles>  (27) 
CC(C)(C)[Si](C)(C)OCC[C@]12C=CC(=O)N3CC[C@@]4(c5ccccc5N(C(=O)OCc5ccccc5)[C@H]4CC1)[C@@H]32

>  <formal_benchmark_eligible>  (27) 
false

$$$$
Compound 39
     RDKit          2D

 33 39  0  0  0  0  0  0  0  0999 V2000
   -2.0000   -1.2000    0.0000 C   0  0  0  0  0  0  0  0  0  0  0  0
   -3.0000   -1.6000    0.0000 C   0  0  0  0  0  0  0  0  0  0  0  0
   -3.9000   -0.8000    0.0000 C   0  0  0  0  0  0  0  0  0  0  0  0
   -3.5000    0.3000    0.0000 C   0  0  0  0  0  0  0  0  0  0  0  0
   -2.4000    0.6000    0.0000 C   0  0  0  0  0  0  0  0  0  0  0  0
   -1.6000   -0.2000    0.0000 C   0  0  0  0  0  0  0  0  0  0  0  0
   -0.9000   -1.9000    0.0000 N   0  0  0  0  0  0  0  0  0  0  0  0
    0.0000   -1.2000    0.0000 C   0  0  0  0  0  0  0  0  0  0  0  0
   -0.4000   -0.2000    0.0000 C   0  0  0  0  0  0  0  0  0  0  0  0
    1.0000   -1.4000    0.0000 C   0  0  0  0  0  0  0  0  0  0  0  0
    1.8000   -0.4000    0.0000 C   0  0  0  0  0  0  0  0  0  0  0  0
    1.5000    0.7000    0.0000 C   0  0  0  0  0  0  0  0  0  0  0  0
    0.3000    0.9500    0.0000 C   0  0  0  0  0  0  0  0  0  0  0  0
    0.0000    2.0000    0.0000 N   0  0  0  0  0  0  0  0  0  0  0  0
   -1.2000    2.0000    0.0000 C   0  0  0  0  0  0  0  0  0  0  0  0
   -1.2000    0.8500    0.0000 C   0  0  0  0  0  0  0  0  0  0  0  0
    0.7500    3.0000    0.0000 C   0  0  0  0  0  0  0  0  0  0  0  0
    1.8500    2.7500    0.0000 C   0  0  0  0  0  0  0  0  0  0  0  0
    2.2000    1.6500    0.0000 C   0  0  0  0  0  0  0  0  0  0  0  0
    2.5000   -0.3000    0.0000 C   0  0  0  0  0  0  0  0  0  0  0  0
    3.8000    0.6000    0.0000 C   0  0  0  0  0  0  0  0  0  0  0  0
   -0.9000   -3.1000    0.0000 C   0  0  0  0  0  0  0  0  0  0  0  0
   -1.8000   -3.6000    0.0000 O   0  0  0  0  0  0  0  0  0  0  0  0
    0.0000   -3.6000    0.0000 O   0  0  0  0  0  0  0  0  0  0  0  0
    0.0000   -4.7000    0.0000 C   0  0  0  0  0  0  0  0  0  0  0  0
    0.0000   -5.8000    0.0000 C   0  0  0  0  0  0  0  0  0  0  0  0
    0.8660   -6.3000    0.0000 C   0  0  0  0  0  0  0  0  0  0  0  0
    0.8660   -7.3000    0.0000 C   0  0  0  0  0  0  0  0  0  0  0  0
    0.0000   -7.8000    0.0000 C   0  0  0  0  0  0  0  0  0  0  0  0
   -0.8660   -7.3000    0.0000 C   0  0  0  0  0  0  0  0  0  0  0  0
   -0.8660   -6.3000    0.0000 C   0  0  0  0  0  0  0  0  0  0  0  0
    3.4000    1.5500    0.0000 O   0  0  0  0  0  0  0  0  0  0  0  0
    0.1500    4.0000    0.0000 O   0  0  0  0  0  0  0  0  0  0  0  0
  1  2  2  0
  2  3  1  0
  3  4  2  0
  4  5  1  0
  5  6  2  0
  6  1  1  0
  1  7  1  0
  7  8  1  0
  8  9  1  0
  9  6  1  0
  9 13  1  0
 13 12  1  0
 12 11  1  1
 11 10  1  0
  8 10  1  6
 14 15  1  0
 15 16  1  0
 14 17  1  0
 17 18  1  0
 19 18  1  6
 20 21  1  0
  9 16  1  1
 13 14  1  1
 12 19  1  0
 12 20  1  0
  7 22  1  0
 22 23  2  0
 22 24  1  0
 24 25  1  0
 25 26  1  0
 26 27  2  0
 27 28  1  0
 28 29  2  0
 29 30  1  0
 30 31  2  0
 31 26  1  0
 21 32  1  0
 17 33  2  0
 19 32  1  0
M  END
>  <molecule_id>  (28) 
paper-0ae671ac9a8bbe22:compound:39

>  <label>  (28) 
39

>  <structure_basis>  (28) 
source_drawing_transcription

>  <review_status>  (28) 
pending_independent_chemist_review

>  <canonical_isomeric_smiles>  (28) 
O=C1C[C@@H]2OCC[C@@]23CC[C@@H]2N(C(=O)OCc4ccccc4)c4ccccc4[C@@]24CCN1[C@@H]34

>  <formal_benchmark_eligible>  (28) 
false

$$$$
Compound S1
     RDKit          2D

 32 38  0  0  0  0  0  0  0  0999 V2000
   -2.0000   -1.2000    0.0000 C   0  0  0  0  0  0  0  0  0  0  0  0
   -3.0000   -1.6000    0.0000 C   0  0  0  0  0  0  0  0  0  0  0  0
   -3.9000   -0.8000    0.0000 C   0  0  0  0  0  0  0  0  0  0  0  0
   -3.5000    0.3000    0.0000 C   0  0  0  0  0  0  0  0  0  0  0  0
   -2.4000    0.6000    0.0000 C   0  0  0  0  0  0  0  0  0  0  0  0
   -1.6000   -0.2000    0.0000 C   0  0  0  0  0  0  0  0  0  0  0  0
   -0.9000   -1.9000    0.0000 N   0  0  0  0  0  0  0  0  0  0  0  0
    0.0000   -1.2000    0.0000 C   0  0  0  0  0  0  0  0  0  0  0  0
   -0.4000   -0.2000    0.0000 C   0  0  0  0  0  0  0  0  0  0  0  0
    1.0000   -1.4000    0.0000 C   0  0  0  0  0  0  0  0  0  0  0  0
    1.8000   -0.4000    0.0000 C   0  0  0  0  0  0  0  0  0  0  0  0
    1.5000    0.7000    0.0000 C   0  0  0  0  0  0  0  0  0  0  0  0
    0.3000    0.9500    0.0000 C   0  0  0  0  0  0  0  0  0  0  0  0
    0.0000    2.0000    0.0000 N   0  0  0  0  0  0  0  0  0  0  0  0
   -1.2000    2.0000    0.0000 C   0  0  0  0  0  0  0  0  0  0  0  0
   -1.2000    0.8500    0.0000 C   0  0  0  0  0  0  0  0  0  0  0  0
    0.7500    3.0000    0.0000 C   0  0  0  0  0  0  0  0  0  0  0  0
    1.8500    2.7500    0.0000 C   0  0  0  0  0  0  0  0  0  0  0  0
    2.2000    1.6500    0.0000 C   0  0  0  0  0  0  0  0  0  0  0  0
    2.5000   -0.3000    0.0000 C   0  0  0  0  0  0  0  0  0  0  0  0
    3.8000    0.6000    0.0000 C   0  0  0  0  0  0  0  0  0  0  0  0
   -0.9000   -3.1000    0.0000 C   0  0  0  0  0  0  0  0  0  0  0  0
   -1.8000   -3.6000    0.0000 O   0  0  0  0  0  0  0  0  0  0  0  0
    0.0000   -3.6000    0.0000 O   0  0  0  0  0  0  0  0  0  0  0  0
    0.0000   -4.7000    0.0000 C   0  0  0  0  0  0  0  0  0  0  0  0
    0.0000   -5.8000    0.0000 C   0  0  0  0  0  0  0  0  0  0  0  0
    0.8660   -6.3000    0.0000 C   0  0  0  0  0  0  0  0  0  0  0  0
    0.8660   -7.3000    0.0000 C   0  0  0  0  0  0  0  0  0  0  0  0
    0.0000   -7.8000    0.0000 C   0  0  0  0  0  0  0  0  0  0  0  0
   -0.8660   -7.3000    0.0000 C   0  0  0  0  0  0  0  0  0  0  0  0
   -0.8660   -6.3000    0.0000 C   0  0  0  0  0  0  0  0  0  0  0  0
    3.4000    1.5500    0.0000 O   0  0  0  0  0  0  0  0  0  0  0  0
  1  2  2  0
  2  3  1  0
  3  4  2  0
  4  5  1  0
  5  6  2  0
  6  1  1  0
  1  7  1  0
  7  8  1  0
  8  9  1  0
  9  6  1  0
  9 13  1  0
 13 12  1  0
 12 11  1  1
 11 10  1  0
  8 10  1  6
 14 15  1  0
 15 16  1  0
 14 17  1  0
 17 18  1  0
 19 18  1  6
 20 21  1  0
  9 16  1  1
 13 14  1  1
 12 19  1  0
 12 20  1  0
  7 22  1  0
 22 23  2  0
 22 24  1  0
 24 25  1  0
 25 26  1  0
 26 27  2  0
 27 28  1  0
 28 29  2  0
 29 30  1  0
 30 31  2  0
 31 26  1  0
 21 32  1  0
 19 32  1  0
M  END
>  <molecule_id>  (29) 
paper-0ae671ac9a8bbe22:compound:S1

>  <label>  (29) 
S1

>  <structure_basis>  (29) 
source_drawing_transcription

>  <review_status>  (29) 
pending_independent_chemist_review

>  <canonical_isomeric_smiles>  (29) 
O=C(OCc1ccccc1)N1c2ccccc2[C@@]23CCN4CC[C@@H]5OCC[C@]5(CC[C@H]12)[C@H]43

>  <formal_benchmark_eligible>  (29) 
false

$$$$
Formal-synthesis endpoint for (-)-deoxoapodine
     RDKit          2D

 22 27  0  0  0  0  0  0  0  0999 V2000
   -2.0000   -1.2000    0.0000 C   0  0  0  0  0  0  0  0  0  0  0  0
   -3.0000   -1.6000    0.0000 C   0  0  0  0  0  0  0  0  0  0  0  0
   -3.9000   -0.8000    0.0000 C   0  0  0  0  0  0  0  0  0  0  0  0
   -3.5000    0.3000    0.0000 C   0  0  0  0  0  0  0  0  0  0  0  0
   -2.4000    0.6000    0.0000 C   0  0  0  0  0  0  0  0  0  0  0  0
   -1.6000   -0.2000    0.0000 C   0  0  0  0  0  0  0  0  0  0  0  0
   -0.9000   -1.9000    0.0000 N   0  0  0  0  0  0  0  0  0  0  0  0
    0.0000   -1.2000    0.0000 C   0  0  0  0  0  0  0  0  0  0  0  0
   -0.4000   -0.2000    0.0000 C   0  0  0  0  0  0  0  0  0  0  0  0
    1.0000   -1.4000    0.0000 C   0  0  0  0  0  0  0  0  0  0  0  0
    1.8000   -0.4000    0.0000 C   0  0  0  0  0  0  0  0  0  0  0  0
    1.5000    0.7000    0.0000 C   0  0  0  0  0  0  0  0  0  0  0  0
    0.3000    0.9500    0.0000 C   0  0  0  0  0  0  0  0  0  0  0  0
    0.0000    2.0000    0.0000 N   0  0  0  0  0  0  0  0  0  0  0  0
   -1.2000    2.0000    0.0000 C   0  0  0  0  0  0  0  0  0  0  0  0
   -1.2000    0.8500    0.0000 C   0  0  0  0  0  0  0  0  0  0  0  0
    0.7500    3.0000    0.0000 C   0  0  0  0  0  0  0  0  0  0  0  0
    1.8500    2.7500    0.0000 C   0  0  0  0  0  0  0  0  0  0  0  0
    2.2000    1.6500    0.0000 C   0  0  0  0  0  0  0  0  0  0  0  0
    2.5000   -0.3000    0.0000 C   0  0  0  0  0  0  0  0  0  0  0  0
    3.8000    0.6000    0.0000 C   0  0  0  0  0  0  0  0  0  0  0  0
    3.4000    1.5500    0.0000 O   0  0  0  0  0  0  0  0  0  0  0  0
  1  2  2  0
  2  3  1  0
  3  4  2  0
  4  5  1  0
  5  6  2  0
  6  1  1  0
  1  7  1  0
  7  8  1  0
  8  9  1  0
  9  6  1  0
  9 13  1  0
 13 12  1  0
 12 11  1  1
 11 10  1  0
  8 10  1  6
 14 15  1  0
 15 16  1  0
 14 17  1  0
 17 18  1  0
 19 18  1  6
 20 21  1  0
  9 16  1  1
 13 14  1  1
 12 19  1  0
 12 20  1  0
 21 22  1  0
 19 22  1  0
M  END
>  <molecule_id>  (30) 
paper-0ae671ac9a8bbe22:compound:40

>  <label>  (30) 
40

>  <structure_basis>  (30) 
source_drawing_transcription

>  <review_status>  (30) 
pending_independent_chemist_review

>  <canonical_isomeric_smiles>  (30) 
c1ccc2c(c1)N[C@H]1CC[C@]34CCO[C@H]3CCN3CC[C@]21[C@@H]34

>  <formal_benchmark_eligible>  (30) 
false

$$$$
Hydrogenated, Cbz-deprotected hemiaminal (interpreted)
     RDKit          2D

 23 27  0  0  0  0  0  0  0  0999 V2000
   -2.0000   -1.2000    0.0000 C   0  0  0  0  0  0  0  0  0  0  0  0
   -3.0000   -1.6000    0.0000 C   0  0  0  0  0  0  0  0  0  0  0  0
   -3.9000   -0.8000    0.0000 C   0  0  0  0  0  0  0  0  0  0  0  0
   -3.5000    0.3000    0.0000 C   0  0  0  0  0  0  0  0  0  0  0  0
   -2.4000    0.6000    0.0000 C   0  0  0  0  0  0  0  0  0  0  0  0
   -1.6000   -0.2000    0.0000 C   0  0  0  0  0  0  0  0  0  0  0  0
   -0.9000   -1.9000    0.0000 N   0  0  0  0  0  0  0  0  0  0  0  0
    0.0000   -1.2000    0.0000 C   0  0  0  0  0  0  0  0  0  0  0  0
   -0.4000   -0.2000    0.0000 C   0  0  0  0  0  0  0  0  0  0  0  0
    1.0000   -1.4000    0.0000 C   0  0  0  0  0  0  0  0  0  0  0  0
    1.8000   -0.4000    0.0000 C   0  0  0  0  0  0  0  0  0  0  0  0
    1.5000    0.7000    0.0000 C   0  0  0  0  0  0  0  0  0  0  0  0
    0.3000    0.9500    0.0000 C   0  0  0  0  0  0  0  0  0  0  0  0
    0.0000    2.0000    0.0000 N   0  0  0  0  0  0  0  0  0  0  0  0
   -1.2000    2.0000    0.0000 C   0  0  0  0  0  0  0  0  0  0  0  0
   -1.2000    0.8500    0.0000 C   0  0  0  0  0  0  0  0  0  0  0  0
    0.7500    3.0000    0.0000 C   0  0  0  0  0  0  0  0  0  0  0  0
    1.8500    2.7500    0.0000 C   0  0  0  0  0  0  0  0  0  0  0  0
    2.2000    1.6500    0.0000 C   0  0  0  0  0  0  0  0  0  0  0  0
    2.6000    0.4500    0.0000 C   0  0  0  0  0  0  0  0  0  0  0  0
    0.1500    4.0000    0.0000 O   0  0  0  0  0  0  0  0  0  0  0  0
   -2.1000    2.7000    0.0000 O   0  0  0  0  0  0  0  0  0  0  0  0
    2.9000   -0.6500    0.0000 C   0  0  0  0  0  0  0  0  0  0  0  0
  1  2  2  0
  2  3  1  0
  3  4  2  0
  4  5  1  0
  5  6  2  0
  6  1  1  0
  1  7  1  0
  7  8  1  0
  8  9  1  0
  9  6  1  0
  9 13  1  0
 13 12  1  0
 12 11  1  0
 11 10  1  0
  8 10  1  6
 14 15  1  0
 15 16  1  0
 14 17  1  0
 17 18  1  0
 18 19  1  0
  9 16  1  1
 13 14  1  1
 12 19  1  0
 12 20  1  6
 17 21  2  0
 15 22  1  0
 20 23  1  0
M  END
>  <molecule_id>  (31) 
paper-0ae671ac9a8bbe22:compound:U26_H2

>  <label>  (31) 
U26_H2

>  <structure_basis>  (31) 
procedural_interpretation

>  <review_status>  (31) 
pending_independent_chemist_review

>  <canonical_isomeric_smiles>  (31) 
CC[C@]12CCC(=O)N3C(O)C[C@@]4(c5ccccc5N[C@H]4CC1)[C@@H]32

>  <formal_benchmark_eligible>  (31) 
false

$$$$
N-methyl vinyl intermediate (interpreted)
     RDKit          2D

 22 26  0  0  0  0  0  0  0  0999 V2000
   -2.0000   -1.2000    0.0000 C   0  0  0  0  0  0  0  0  0  0  0  0
   -3.0000   -1.6000    0.0000 C   0  0  0  0  0  0  0  0  0  0  0  0
   -3.9000   -0.8000    0.0000 C   0  0  0  0  0  0  0  0  0  0  0  0
   -3.5000    0.3000    0.0000 C   0  0  0  0  0  0  0  0  0  0  0  0
   -2.4000    0.6000    0.0000 C   0  0  0  0  0  0  0  0  0  0  0  0
   -1.6000   -0.2000    0.0000 C   0  0  0  0  0  0  0  0  0  0  0  0
   -0.9000   -1.9000    0.0000 N   0  0  0  0  0  0  0  0  0  0  0  0
    0.0000   -1.2000    0.0000 C   0  0  0  0  0  0  0  0  0  0  0  0
   -0.4000   -0.2000    0.0000 C   0  0  0  0  0  0  0  0  0  0  0  0
    1.0000   -1.4000    0.0000 C   0  0  0  0  0  0  0  0  0  0  0  0
    1.8000   -0.4000    0.0000 C   0  0  0  0  0  0  0  0  0  0  0  0
    1.5000    0.7000    0.0000 C   0  0  0  0  0  0  0  0  0  0  0  0
    0.3000    0.9500    0.0000 C   0  0  0  0  0  0  0  0  0  0  0  0
    0.0000    2.0000    0.0000 N   0  0  0  0  0  0  0  0  0  0  0  0
   -1.2000    2.0000    0.0000 C   0  0  0  0  0  0  0  0  0  0  0  0
   -1.2000    0.8500    0.0000 C   0  0  0  0  0  0  0  0  0  0  0  0
    0.7500    3.0000    0.0000 C   0  0  0  0  0  0  0  0  0  0  0  0
    1.8500    2.7500    0.0000 C   0  0  0  0  0  0  0  0  0  0  0  0
    2.2000    1.6500    0.0000 C   0  0  0  0  0  0  0  0  0  0  0  0
    2.6000    0.4500    0.0000 C   0  0  0  0  0  0  0  0  0  0  0  0
    2.9000   -0.7000    0.0000 C   0  0  0  0  0  0  0  0  0  0  0  0
   -0.9000   -3.0000    0.0000 C   0  0  0  0  0  0  0  0  0  0  0  0
  1  2  2  0
  2  3  1  0
  3  4  2  0
  4  5  1  0
  5  6  2  0
  6  1  1  0
  1  7  1  0
  7  8  1  0
  8  9  1  0
  9  6  1  0
  9 13  1  0
 13 12  1  0
 12 11  1  0
 11 10  1  0
  8 10  1  6
 14 15  1  0
 15 16  1  0
 14 17  1  0
 17 18  1  0
 18 19  1  0
 20 21  2  0
  9 16  1  1
 13 14  1  1
 12 19  1  0
 12 20  1  6
  7 22  1  0
M  END
>  <molecule_id>  (32) 
paper-0ae671ac9a8bbe22:compound:U26_LAH

>  <label>  (32) 
U26_LAH

>  <structure_basis>  (32) 
procedural_interpretation

>  <review_status>  (32) 
pending_independent_chemist_review

>  <canonical_isomeric_smiles>  (32) 
C=C[C@]12CCCN3CC[C@@]4(c5ccccc5N(C)[C@H]4CC1)[C@@H]32

>  <formal_benchmark_eligible>  (32) 
false

$$$$
Homologated aldehyde intermediate (interpreted)
     RDKit          2D

 34 39  0  0  0  0  0  0  0  0999 V2000
   -2.0000   -1.2000    0.0000 C   0  0  0  0  0  0  0  0  0  0  0  0
   -3.0000   -1.6000    0.0000 C   0  0  0  0  0  0  0  0  0  0  0  0
   -3.9000   -0.8000    0.0000 C   0  0  0  0  0  0  0  0  0  0  0  0
   -3.5000    0.3000    0.0000 C   0  0  0  0  0  0  0  0  0  0  0  0
   -2.4000    0.6000    0.0000 C   0  0  0  0  0  0  0  0  0  0  0  0
   -1.6000   -0.2000    0.0000 C   0  0  0  0  0  0  0  0  0  0  0  0
   -0.9000   -1.9000    0.0000 N   0  0  0  0  0  0  0  0  0  0  0  0
    0.0000   -1.2000    0.0000 C   0  0  0  0  0  0  0  0  0  0  0  0
   -0.4000   -0.2000    0.0000 C   0  0  0  0  0  0  0  0  0  0  0  0
    1.0000   -1.4000    0.0000 C   0  0  0  0  0  0  0  0  0  0  0  0
    1.8000   -0.4000    0.0000 C   0  0  0  0  0  0  0  0  0  0  0  0
    1.5000    0.7000    0.0000 C   0  0  0  0  0  0  0  0  0  0  0  0
    0.3000    0.9500    0.0000 C   0  0  0  0  0  0  0  0  0  0  0  0
    0.0000    2.0000    0.0000 N   0  0  0  0  0  0  0  0  0  0  0  0
   -1.2000    2.0000    0.0000 C   0  0  0  0  0  0  0  0  0  0  0  0
   -1.2000    0.8500    0.0000 C   0  0  0  0  0  0  0  0  0  0  0  0
    0.7500    3.0000    0.0000 C   0  0  0  0  0  0  0  0  0  0  0  0
    1.8500    2.7500    0.0000 C   0  0  0  0  0  0  0  0  0  0  0  0
    2.2000    1.6500    0.0000 C   0  0  0  0  0  0  0  0  0  0  0  0
    2.6000    0.4500    0.0000 C   0  0  0  0  0  0  0  0  0  0  0  0
   -0.9000   -3.1000    0.0000 C   0  0  0  0  0  0  0  0  0  0  0  0
   -1.8000   -3.6000    0.0000 O   0  0  0  0  0  0  0  0  0  0  0  0
    0.0000   -3.6000    0.0000 O   0  0  0  0  0  0  0  0  0  0  0  0
    0.0000   -4.7000    0.0000 C   0  0  0  0  0  0  0  0  0  0  0  0
    0.0000   -5.8000    0.0000 C   0  0  0  0  0  0  0  0  0  0  0  0
    0.8660   -6.3000    0.0000 C   0  0  0  0  0  0  0  0  0  0  0  0
    0.8660   -7.3000    0.0000 C   0  0  0  0  0  0  0  0  0  0  0  0
    0.0000   -7.8000    0.0000 C   0  0  0  0  0  0  0  0  0  0  0  0
   -0.8660   -7.3000    0.0000 C   0  0  0  0  0  0  0  0  0  0  0  0
   -0.8660   -6.3000    0.0000 C   0  0  0  0  0  0  0  0  0  0  0  0
    0.1500    4.0000    0.0000 O   0  0  0  0  0  0  0  0  0  0  0  0
   -2.1000    2.7000    0.0000 O   0  0  0  0  0  0  0  0  0  0  0  0
    2.9000   -0.6500    0.0000 C   0  0  0  0  0  0  0  0  0  0  0  0
    3.8000   -1.0500    0.0000 O   0  0  0  0  0  0  0  0  0  0  0  0
  1  2  2  0
  2  3  1  0
  3  4  2  0
  4  5  1  0
  5  6  2  0
  6  1  1  0
  1  7  1  0
  7  8  1  0
  8  9  1  0
  9  6  1  0
  9 13  1  0
 13 12  1  0
 12 11  1  0
 11 10  1  0
  8 10  1  6
 14 15  1  0
 15 16  1  0
 14 17  1  0
 17 18  1  0
 18 19  1  0
  9 16  1  1
 13 14  1  1
 12 19  1  0
 12 20  1  6
  7 21  1  0
 21 22  2  0
 21 23  1  0
 23 24  1  0
 24 25  1  0
 25 26  2  0
 26 27  1  0
 27 28  2  0
 28 29  1  0
 29 30  2  0
 30 25  1  0
 17 31  2  0
 15 32  1  0
 20 33  1  0
 33 34  2  0
M  END
>  <molecule_id>  (33) 
paper-0ae671ac9a8bbe22:compound:U32_CHO

>  <label>  (33) 
U32_CHO

>  <structure_basis>  (33) 
procedural_interpretation

>  <review_status>  (33) 
pending_independent_chemist_review

>  <canonical_isomeric_smiles>  (33) 
O=CC[C@]12CCC(=O)N3C(O)C[C@@]4(c5ccccc5N(C(=O)OCc5ccccc5)[C@H]4CC1)[C@@H]32

>  <formal_benchmark_eligible>  (33) 
false

$$$$
Phenylselenide intermediate, unspecified new stereocenter (interpreted)
     RDKit          2D

 47 53  0  0  0  0  0  0  0  0999 V2000
   -2.0000   -1.2000    0.0000 C   0  0  0  0  0  0  0  0  0  0  0  0
   -3.0000   -1.6000    0.0000 C   0  0  0  0  0  0  0  0  0  0  0  0
   -3.9000   -0.8000    0.0000 C   0  0  0  0  0  0  0  0  0  0  0  0
   -3.5000    0.3000    0.0000 C   0  0  0  0  0  0  0  0  0  0  0  0
   -2.4000    0.6000    0.0000 C   0  0  0  0  0  0  0  0  0  0  0  0
   -1.6000   -0.2000    0.0000 C   0  0  0  0  0  0  0  0  0  0  0  0
   -0.9000   -1.9000    0.0000 N   0  0  0  0  0  0  0  0  0  0  0  0
    0.0000   -1.2000    0.0000 C   0  0  0  0  0  0  0  0  0  0  0  0
   -0.4000   -0.2000    0.0000 C   0  0  0  0  0  0  0  0  0  0  0  0
    1.0000   -1.4000    0.0000 C   0  0  0  0  0  0  0  0  0  0  0  0
    1.8000   -0.4000    0.0000 C   0  0  0  0  0  0  0  0  0  0  0  0
    1.5000    0.7000    0.0000 C   0  0  0  0  0  0  0  0  0  0  0  0
    0.3000    0.9500    0.0000 C   0  0  0  0  0  0  0  0  0  0  0  0
    0.0000    2.0000    0.0000 N   0  0  0  0  0  0  0  0  0  0  0  0
   -1.2000    2.0000    0.0000 C   0  0  0  0  0  0  0  0  0  0  0  0
   -1.2000    0.8500    0.0000 C   0  0  0  0  0  0  0  0  0  0  0  0
    0.7500    3.0000    0.0000 C   0  0  0  0  0  0  0  0  0  0  0  0
    1.8500    2.7500    0.0000 C   0  0  0  0  0  0  0  0  0  0  0  0
    2.2000    1.6500    0.0000 C   0  0  0  0  0  0  0  0  0  0  0  0
    2.6000    0.4500    0.0000 C   0  0  0  0  0  0  0  0  0  0  0  0
    2.9000   -0.7000    0.0000 C   0  0  0  0  0  0  0  0  0  0  0  0
   -0.9000   -3.1000    0.0000 C   0  0  0  0  0  0  0  0  0  0  0  0
   -1.8000   -3.6000    0.0000 O   0  0  0  0  0  0  0  0  0  0  0  0
    0.0000   -3.6000    0.0000 O   0  0  0  0  0  0  0  0  0  0  0  0
    0.0000   -4.7000    0.0000 C   0  0  0  0  0  0  0  0  0  0  0  0
    0.0000   -5.8000    0.0000 C   0  0  0  0  0  0  0  0  0  0  0  0
    0.8660   -6.3000    0.0000 C   0  0  0  0  0  0  0  0  0  0  0  0
    0.8660   -7.3000    0.0000 C   0  0  0  0  0  0  0  0  0  0  0  0
    0.0000   -7.8000    0.0000 C   0  0  0  0  0  0  0  0  0  0  0  0
   -0.8660   -7.3000    0.0000 C   0  0  0  0  0  0  0  0  0  0  0  0
   -0.8660   -6.3000    0.0000 C   0  0  0  0  0  0  0  0  0  0  0  0
    3.8000   -1.1000    0.0000 O   0  0  0  0  0  0  0  0  0  0  0  0
    0.1500    4.0000    0.0000 O   0  0  0  0  0  0  0  0  0  0  0  0
    4.7000   -1.4000    0.0000 Si  0  0  0  0  0  4  0  0  0  0  0  0
    5.0000   -0.4000    0.0000 C   0  0  0  0  0  0  0  0  0  0  0  0
    4.5000   -2.4000    0.0000 C   0  0  0  0  0  0  0  0  0  0  0  0
    5.8000   -1.3000    0.0000 C   0  0  0  0  0  0  0  0  0  0  0  0
    5.8000   -0.3000    0.0000 C   0  0  0  0  0  0  0  0  0  0  0  0
    6.8000   -1.3000    0.0000 C   0  0  0  0  0  0  0  0  0  0  0  0
    5.8000   -2.3000    0.0000 C   0  0  0  0  0  0  0  0  0  0  0  0
    2.3500    3.7500    0.0000 Se  0  0  0  0  0  2  0  0  0  0  0  0
    2.8500    4.7500    0.0000 C   0  0  0  0  0  0  0  0  0  0  0  0
    3.7160    5.2500    0.0000 C   0  0  0  0  0  0  0  0  0  0  0  0
    3.7160    6.2500    0.0000 C   0  0  0  0  0  0  0  0  0  0  0  0
    2.8500    6.7500    0.0000 C   0  0  0  0  0  0  0  0  0  0  0  0
    1.9840    6.2500    0.0000 C   0  0  0  0  0  0  0  0  0  0  0  0
    1.9840    5.2500    0.0000 C   0  0  0  0  0  0  0  0  0  0  0  0
  1  2  2  0
  2  3  1  0
  3  4  2  0
  4  5  1  0
  5  6  2  0
  6  1  1  0
  1  7  1  0
  7  8  1  0
  8  9  1  0
  9  6  1  0
  9 13  1  0
 13 12  1  0
 12 11  1  0
 11 10  1  0
  8 10  1  6
 14 15  1  0
 15 16  1  0
 14 17  1  0
 17 18  1  0
 18 19  1  0
 20 21  1  0
  9 16  1  1
 13 14  1  1
 12 19  1  0
 12 20  1  6
  7 22  1  0
 22 23  2  0
 22 24  1  0
 24 25  1  0
 25 26  1  0
 26 27  2  0
 27 28  1  0
 28 29  2  0
 29 30  1  0
 30 31  2  0
 31 26  1  0
 21 32  1  0
 17 33  2  0
 32 34  1  0
 34 35  1  0
 34 36  1  0
 34 37  1  0
 37 38  1  0
 37 39  1  0
 37 40  1  0
 18 41  1  0
 41 42  1  0
 42 43  2  0
 43 44  1  0
 44 45  2  0
 45 46  1  0
 46 47  2  0
 47 42  1  0
M  END
>  <molecule_id>  (34) 
paper-0ae671ac9a8bbe22:compound:U37_Se

>  <label>  (34) 
U37_Se

>  <structure_basis>  (34) 
procedural_interpretation

>  <review_status>  (34) 
pending_independent_chemist_review

>  <canonical_isomeric_smiles>  (34) 
CC(C)(C)[Si](C)(C)OCC[C@@]12CC[C@@H]3N(C(=O)OCc4ccccc4)c4ccccc4[C@@]34CCN(C(=O)C([Se]c3ccccc3)C1)[C@@H]24

>  <formal_benchmark_eligible>  (34) 
false

$$$$
Unisolated N-unprotected indoline (interpreted)
     RDKit          2D

 22 25  0  0  0  0  0  0  0  0999 V2000
    0.0000    0.0000    0.0000 C   0  0  0  0  0  0  0  0  0  0  0  0
    0.0000   -1.1000    0.0000 C   0  0  0  0  0  0  0  0  0  0  0  0
    1.0000   -1.7000    0.0000 C   0  0  0  0  0  0  0  0  0  0  0  0
    2.0000   -1.1000    0.0000 C   0  0  0  0  0  0  0  0  0  0  0  0
    2.0000    0.0000    0.0000 C   0  0  0  0  0  0  0  0  0  0  0  0
    1.0000    0.6000    0.0000 C   0  0  0  0  0  0  0  0  0  0  0  0
   -0.4000    1.0000    0.0000 C   0  0  0  0  0  0  0  0  0  0  0  0
    0.5000    1.3500    0.0000 C   0  0  0  0  0  0  0  0  0  0  0  0
    1.5000    1.0000    0.0000 C   0  0  0  0  0  0  0  0  0  0  0  0
    1.0000    1.8500    0.0000 N   0  0  0  0  0  0  0  0  0  0  0  0
    1.8000    2.7000    0.0000 C   0  0  0  0  0  0  0  0  0  0  0  0
    2.8000    2.4500    0.0000 C   0  0  0  0  0  0  0  0  0  0  0  0
    3.7000    3.2000    0.0000 C   0  0  0  0  0  0  0  0  0  0  0  0
    4.5000    3.0000    0.0000 Br  0  0  0  0  0  0  0  0  0  0  0  0
   -1.0000    0.6000    0.0000 C   0  0  0  0  0  0  0  0  0  0  0  0
   -2.0000    0.0000    0.0000 C   0  0  0  0  0  0  0  0  0  0  0  0
   -3.0000    0.6000    0.0000 C   0  0  0  0  0  0  0  0  0  0  0  0
   -3.0000    1.8000    0.0000 C   0  0  0  0  0  0  0  0  0  0  0  0
   -2.0000    2.4000    0.0000 C   0  0  0  0  0  0  0  0  0  0  0  0
   -1.0000    1.8000    0.0000 C   0  0  0  0  0  0  0  0  0  0  0  0
   -2.0000   -1.1500    0.0000 N   0  0  0  0  0  0  0  0  0  0  0  0
    1.2000    3.7000    0.0000 O   0  0  0  0  0  0  0  0  0  0  0  0
 16 17  2  0
 17 18  1  0
 18 19  2  0
 19 20  1  0
 20 15  2  0
 15 16  1  0
  1  2  1  0
  2  3  1  6
  3  4  1  0
  5  4  1  1
  5  6  1  0
  6  1  1  0
  7  8  1  0
 10 11  1  0
 11 12  1  0
 12 13  1  0
 13 14  1  0
 16 21  1  0
  8  9  2  0
  1  7  1  1
  5  9  1  0
  6 10  1  1
  1 15  1  0
 11 22  2  0
 21  2  1  0
M  END
>  <molecule_id>  (35) 
paper-0ae671ac9a8bbe22:compound:U23_NH

>  <label>  (35) 
U23_NH

>  <structure_basis>  (35) 
procedural_interpretation

>  <review_status>  (35) 
pending_independent_chemist_review

>  <canonical_isomeric_smiles>  (35) 
O=C(CCBr)N[C@H]1[C@H]2C=CC[C@@]13c1ccccc1N[C@H]3CC2

>  <formal_benchmark_eligible>  (35) 
false

$$$$
Unisolated reductive-condensation imine (interpreted)
     RDKit          2D

 22 25  0  0  0  0  0  0  0  0999 V2000
    0.0000    0.0000    0.0000 C   0  0  0  0  0  0  0  0  0  0  0  0
    0.0000   -1.1000    0.0000 C   0  0  0  0  0  0  0  0  0  0  0  0
    1.0000   -1.7000    0.0000 C   0  0  0  0  0  0  0  0  0  0  0  0
    2.0000   -1.1000    0.0000 C   0  0  0  0  0  0  0  0  0  0  0  0
    2.0000    0.0000    0.0000 C   0  0  0  0  0  0  0  0  0  0  0  0
    1.0000    0.6000    0.0000 C   0  0  0  0  0  0  0  0  0  0  0  0
   -0.4000    1.0000    0.0000 C   0  0  0  0  0  0  0  0  0  0  0  0
    0.5000    1.3500    0.0000 C   0  0  0  0  0  0  0  0  0  0  0  0
    1.5000    1.0000    0.0000 C   0  0  0  0  0  0  0  0  0  0  0  0
    1.0000    1.8500    0.0000 N   0  0  0  0  0  0  0  0  0  0  0  0
    1.8000    2.7000    0.0000 C   0  0  0  0  0  0  0  0  0  0  0  0
    2.8000    2.4500    0.0000 C   0  0  0  0  0  0  0  0  0  0  0  0
    3.7000    3.2000    0.0000 C   0  0  0  0  0  0  0  0  0  0  0  0
    4.5000    3.0000    0.0000 Br  0  0  0  0  0  0  0  0  0  0  0  0
   -1.0000    0.6000    0.0000 C   0  0  0  0  0  0  0  0  0  0  0  0
   -2.0000    0.0000    0.0000 C   0  0  0  0  0  0  0  0  0  0  0  0
   -3.0000    0.6000    0.0000 C   0  0  0  0  0  0  0  0  0  0  0  0
   -3.0000    1.8000    0.0000 C   0  0  0  0  0  0  0  0  0  0  0  0
   -2.0000    2.4000    0.0000 C   0  0  0  0  0  0  0  0  0  0  0  0
   -1.0000    1.8000    0.0000 C   0  0  0  0  0  0  0  0  0  0  0  0
   -2.0000   -1.1500    0.0000 N   0  0  0  0  0  0  0  0  0  0  0  0
    1.2000    3.7000    0.0000 O   0  0  0  0  0  0  0  0  0  0  0  0
 16 17  2  0
 17 18  1  0
 18 19  2  0
 19 20  1  0
 20 15  2  0
 15 16  1  0
  1  2  1  0
  2  3  1  0
  3  4  1  0
  5  4  1  1
  5  6  1  0
  6  1  1  0
  7  8  1  0
 10 11  1  0
 11 12  1  0
 12 13  1  0
 13 14  1  0
 16 21  1  0
  8  9  2  0
  1  7  1  1
  5  9  1  0
  6 10  1  1
  1 15  1  0
 11 22  2  0
 21  2  2  0
M  END
>  <molecule_id>  (36) 
paper-0ae671ac9a8bbe22:compound:U23_imine

>  <label>  (36) 
U23_imine

>  <structure_basis>  (36) 
procedural_interpretation

>  <review_status>  (36) 
pending_independent_chemist_review

>  <canonical_isomeric_smiles>  (36) 
O=C(CCBr)N[C@H]1[C@H]2C=CC[C@]13C(=Nc1ccccc13)CC2

>  <formal_benchmark_eligible>  (36) 
false

$$$$
Dialdehyde equilibrium member (interpreted)
     RDKit          2D

 34 37  0  0  0  0  0  0  0  0999 V2000
    0.0000    0.0000    0.0000 C   0  0  0  0  0  0  0  0  0  0  0  0
    0.0000   -1.1000    0.0000 C   0  0  0  0  0  0  0  0  0  0  0  0
    1.0000   -1.7000    0.0000 C   0  0  0  0  0  0  0  0  0  0  0  0
    2.0000   -1.1000    0.0000 C   0  0  0  0  0  0  0  0  0  0  0  0
    2.0000    0.0000    0.0000 C   0  0  0  0  0  0  0  0  0  0  0  0
    1.0000    0.6000    0.0000 C   0  0  0  0  0  0  0  0  0  0  0  0
   -0.4000    1.0000    0.0000 C   0  0  0  0  0  0  0  0  0  0  0  0
    0.5000    1.3500    0.0000 C   0  0  0  0  0  0  0  0  0  0  0  0
    1.5000    1.0000    0.0000 C   0  0  0  0  0  0  0  0  0  0  0  0
    1.0000    1.8500    0.0000 N   0  0  0  0  0  0  0  0  0  0  0  0
    1.8000    2.7000    0.0000 C   0  0  0  0  0  0  0  0  0  0  0  0
    2.8000    2.4500    0.0000 C   0  0  0  0  0  0  0  0  0  0  0  0
    3.7000    3.2000    0.0000 C   0  0  0  0  0  0  0  0  0  0  0  0
    4.5000    3.0000    0.0000 Br  0  0  0  0  0  0  0  0  0  0  0  0
   -1.0000    0.6000    0.0000 C   0  0  0  0  0  0  0  0  0  0  0  0
   -2.0000    0.0000    0.0000 C   0  0  0  0  0  0  0  0  0  0  0  0
   -3.0000    0.6000    0.0000 C   0  0  0  0  0  0  0  0  0  0  0  0
   -3.0000    1.8000    0.0000 C   0  0  0  0  0  0  0  0  0  0  0  0
   -2.0000    2.4000    0.0000 C   0  0  0  0  0  0  0  0  0  0  0  0
   -1.0000    1.8000    0.0000 C   0  0  0  0  0  0  0  0  0  0  0  0
   -2.0000   -1.1500    0.0000 N   0  0  0  0  0  0  0  0  0  0  0  0
    1.2000    3.7000    0.0000 O   0  0  0  0  0  0  0  0  0  0  0  0
   -2.0000   -2.3500    0.0000 C   0  0  0  0  0  0  0  0  0  0  0  0
   -2.9000   -2.8500    0.0000 O   0  0  0  0  0  0  0  0  0  0  0  0
   -1.1000   -2.8500    0.0000 O   0  0  0  0  0  0  0  0  0  0  0  0
   -1.1000   -3.9500    0.0000 C   0  0  0  0  0  0  0  0  0  0  0  0
   -1.1000   -5.0500    0.0000 C   0  0  0  0  0  0  0  0  0  0  0  0
   -0.2340   -5.5500    0.0000 C   0  0  0  0  0  0  0  0  0  0  0  0
   -0.2340   -6.5500    0.0000 C   0  0  0  0  0  0  0  0  0  0  0  0
   -1.1000   -7.0500    0.0000 C   0  0  0  0  0  0  0  0  0  0  0  0
   -1.9660   -6.5500    0.0000 C   0  0  0  0  0  0  0  0  0  0  0  0
   -1.9660   -5.5500    0.0000 C   0  0  0  0  0  0  0  0  0  0  0  0
   -0.1000    2.3500    0.0000 O   0  0  0  0  0  0  0  0  0  0  0  0
    0.9000    2.0000    0.0000 O   0  0  0  0  0  0  0  0  0  0  0  0
 16 17  2  0
 17 18  1  0
 18 19  2  0
 19 20  1  0
 20 15  2  0
 15 16  1  0
  1  2  1  0
  2  3  1  6
  3  4  1  0
  4  5  1  0
  5  6  1  0
  6  1  1  0
  7  8  1  0
 10 11  1  0
 11 12  1  0
 12 13  1  0
 13 14  1  0
 16 21  1  0
  1  7  1  1
  5  9  1  1
  6 10  1  1
  1 15  1  0
 11 22  2  0
 21  2  1  0
 21 23  1  0
 23 24  2  0
 23 25  1  0
 25 26  1  0
 26 27  1  0
 27 28  2  0
 28 29  1  0
 29 30  2  0
 30 31  1  0
 31 32  2  0
 32 27  1  0
  8 33  2  0
  9 34  2  0
M  END
>  <molecule_id>  (37) 
paper-0ae671ac9a8bbe22:compound:U24_CHO

>  <label>  (37) 
U24_CHO

>  <structure_basis>  (37) 
procedural_interpretation

>  <review_status>  (37) 
pending_independent_chemist_review

>  <canonical_isomeric_smiles>  (37) 
O=CC[C@]12c3ccccc3N(C(=O)OCc3ccccc3)[C@H]1CC[C@H](C=O)[C@@H]2NC(=O)CCBr

>  <formal_benchmark_eligible>  (37) 
false

$$$$
Hemiaminal equilibrium member (interpreted)
     RDKit          2D

 34 38  0  0  0  0  0  0  0  0999 V2000
   -2.0000   -1.2000    0.0000 C   0  0  0  0  0  0  0  0  0  0  0  0
   -3.0000   -1.6000    0.0000 C   0  0  0  0  0  0  0  0  0  0  0  0
   -3.9000   -0.8000    0.0000 C   0  0  0  0  0  0  0  0  0  0  0  0
   -3.5000    0.3000    0.0000 C   0  0  0  0  0  0  0  0  0  0  0  0
   -2.4000    0.6000    0.0000 C   0  0  0  0  0  0  0  0  0  0  0  0
   -1.6000   -0.2000    0.0000 C   0  0  0  0  0  0  0  0  0  0  0  0
   -0.9000   -1.9000    0.0000 N   0  0  0  0  0  0  0  0  0  0  0  0
    0.0000   -1.2000    0.0000 C   0  0  0  0  0  0  0  0  0  0  0  0
   -0.4000   -0.2000    0.0000 C   0  0  0  0  0  0  0  0  0  0  0  0
    1.0000   -1.4000    0.0000 C   0  0  0  0  0  0  0  0  0  0  0  0
    1.8000   -0.4000    0.0000 C   0  0  0  0  0  0  0  0  0  0  0  0
    1.5000    0.7000    0.0000 C   0  0  0  0  0  0  0  0  0  0  0  0
    0.3000    0.9500    0.0000 C   0  0  0  0  0  0  0  0  0  0  0  0
    0.0000    2.0000    0.0000 N   0  0  0  0  0  0  0  0  0  0  0  0
   -1.2000    2.0000    0.0000 C   0  0  0  0  0  0  0  0  0  0  0  0
   -1.2000    0.8500    0.0000 C   0  0  0  0  0  0  0  0  0  0  0  0
    0.7500    3.0000    0.0000 C   0  0  0  0  0  0  0  0  0  0  0  0
    1.8500    2.7500    0.0000 C   0  0  0  0  0  0  0  0  0  0  0  0
    2.2000    1.6500    0.0000 C   0  0  0  0  0  0  0  0  0  0  0  0
    2.6000    0.4500    0.0000 C   0  0  0  0  0  0  0  0  0  0  0  0
   -0.9000   -3.1000    0.0000 C   0  0  0  0  0  0  0  0  0  0  0  0
   -1.8000   -3.6000    0.0000 O   0  0  0  0  0  0  0  0  0  0  0  0
    0.0000   -3.6000    0.0000 O   0  0  0  0  0  0  0  0  0  0  0  0
    0.0000   -4.7000    0.0000 C   0  0  0  0  0  0  0  0  0  0  0  0
    0.0000   -5.8000    0.0000 C   0  0  0  0  0  0  0  0  0  0  0  0
    0.8660   -6.3000    0.0000 C   0  0  0  0  0  0  0  0  0  0  0  0
    0.8660   -7.3000    0.0000 C   0  0  0  0  0  0  0  0  0  0  0  0
    0.0000   -7.8000    0.0000 C   0  0  0  0  0  0  0  0  0  0  0  0
   -0.8660   -7.3000    0.0000 C   0  0  0  0  0  0  0  0  0  0  0  0
   -0.8660   -6.3000    0.0000 C   0  0  0  0  0  0  0  0  0  0  0  0
    0.1500    4.0000    0.0000 O   0  0  0  0  0  0  0  0  0  0  0  0
    2.0000    1.4500    0.0000 O   0  0  0  0  0  0  0  0  0  0  0  0
   -2.1000    2.7000    0.0000 O   0  0  0  0  0  0  0  0  0  0  0  0
    3.2000    1.9500    0.0000 Br  0  0  0  0  0  0  0  0  0  0  0  0
  1  2  2  0
  2  3  1  0
  3  4  2  0
  4  5  1  0
  5  6  2  0
  6  1  1  0
  1  7  1  0
  7  8  1  0
  8  9  1  0
  9  6  1  0
  9 13  1  0
 13 12  1  0
 12 11  1  0
 11 10  1  0
  8 10  1  6
 14 15  1  0
 15 16  1  0
 14 17  1  0
 17 18  1  0
 18 19  1  0
  9 16  1  1
 13 14  1  1
 12 20  1  6
  7 21  1  0
 21 22  2  0
 21 23  1  0
 23 24  1  0
 24 25  1  0
 25 26  2  0
 26 27  1  0
 27 28  2  0
 28 29  1  0
 29 30  2  0
 30 25  1  0
 17 31  2  0
 20 32  2  0
 15 33  1  6
 19 34  1  0
M  END
>  <molecule_id>  (38) 
paper-0ae671ac9a8bbe22:compound:U24_hemi

>  <label>  (38) 
U24_hemi

>  <structure_basis>  (38) 
procedural_interpretation

>  <review_status>  (38) 
pending_independent_chemist_review

>  <canonical_isomeric_smiles>  (38) 
O=C[C@@H]1CC[C@@H]2N(C(=O)OCc3ccccc3)c3ccccc3[C@@]23C[C@H](O)N(C(=O)CCBr)[C@@H]13

>  <formal_benchmark_eligible>  (38) 
false

$$$$
