4
     RDKit          2D

 11 12  0  0  0  0  0  0  0  0999 V2000
    1.7849    5.4933    0.0000 O   0  0  0  0  0  0  0  0  0  0  0  0
    1.3213    4.0667    0.0000 C   0  0  0  0  0  0  0  0  0  0  0  0
    2.3250    2.9520    0.0000 C   0  0  0  0  0  0  0  0  0  0  0  0
    1.8615    1.5254    0.0000 C   0  0  0  0  0  0  0  0  0  0  0  0
    0.3943    1.2135    0.0000 C   0  0  0  0  0  0  0  0  0  0  0  0
   -0.6094    2.3282    0.0000 C   0  0  0  0  0  0  0  0  0  0  0  0
   -0.1459    3.7548    0.0000 C   0  0  0  0  0  0  0  0  0  0  0  0
    1.2760    0.0000    0.0000 O   0  0  0  0  0  0  0  0  0  0  0  0
    0.3943   -1.2135    0.0000 C   0  0  0  0  0  0  0  0  0  0  0  0
   -1.0323   -0.7500    0.0000 C   0  0  0  0  0  0  0  0  0  0  0  0
   -1.0323    0.7500    0.0000 O   0  0  0  0  0  0  0  0  0  0  0  0
  1  2  2  0
  2  3  1  0
  3  4  1  0
  4  5  1  0
  5  6  1  0
  6  7  1  0
  5  8  1  0
  8  9  1  0
  9 10  1  0
 10 11  1  0
  7  2  1  0
 11  5  1  0
M  END
$$$$
cis-dichlorobutene
     RDKit          2D

  6  5  0  0  0  0  0  0  0  0999 V2000
   -2.2500   -1.2990    0.0000 Cl  0  0  0  0  0  0  0  0  0  0  0  0
   -0.7500   -1.2990    0.0000 C   0  0  0  0  0  0  0  0  0  0  0  0
    0.0000    0.0000    0.0000 C   0  0  0  0  0  0  0  0  0  0  0  0
    1.5000    0.0000    0.0000 C   0  0  0  0  0  0  0  0  0  0  0  0
    2.2500   -1.2990    0.0000 C   0  0  0  0  0  0  0  0  0  0  0  0
    3.7500   -1.2990    0.0000 Cl  0  0  0  0  0  0  0  0  0  0  0  0
  1  2  1  0
  2  3  1  0
  3  4  2  0
  4  5  1  0
  5  6  1  0
M  END
$$$$
TsNHNH2
     RDKit          2D

 12 12  0  0  0  0  0  0  0  0999 V2000
    3.0000    0.0000    0.0000 C   0  0  0  0  0  0  0  0  0  0  0  0
    1.5000    0.0000    0.0000 C   0  0  0  0  0  0  0  0  0  0  0  0
    0.7500   -1.2990    0.0000 C   0  0  0  0  0  0  0  0  0  0  0  0
   -0.7500   -1.2990    0.0000 C   0  0  0  0  0  0  0  0  0  0  0  0
   -1.5000    0.0000    0.0000 C   0  0  0  0  0  0  0  0  0  0  0  0
   -3.0000    0.0000    0.0000 S   0  0  0  0  0  0  0  0  0  0  0  0
   -3.0000    1.5000    0.0000 O   0  0  0  0  0  0  0  0  0  0  0  0
   -3.0000   -1.5000    0.0000 O   0  0  0  0  0  0  0  0  0  0  0  0
   -4.5000    0.0000    0.0000 N   0  0  0  0  0  0  0  0  0  0  0  0
   -5.2500   -1.2990    0.0000 N   0  0  0  0  0  0  0  0  0  0  0  0
   -0.7500    1.2990    0.0000 C   0  0  0  0  0  0  0  0  0  0  0  0
    0.7500    1.2990    0.0000 C   0  0  0  0  0  0  0  0  0  0  0  0
  1  2  1  0
  2  3  1  0
  3  4  2  0
  4  5  1  0
  5  6  1  0
  6  7  2  0
  6  8  2  0
  6  9  1  0
  9 10  1  0
  5 11  2  0
 11 12  1  0
 12  2  2  0
M  END
$$$$
5
     RDKit          2D

 15 17  0  0  0  0  0  0  0  0999 V2000
    1.4060    5.2787    0.0000 O   0  0  0  0  0  0  0  0  0  0  0  0
    1.3213    4.0667    0.0000 C   0  0  0  0  0  0  0  0  0  0  0  0
    2.3250    2.9520    0.0000 C   0  0  0  0  0  0  0  0  0  0  0  0
    3.0944    4.2397    0.0000 C   0  0  0  0  0  0  0  0  0  0  0  0
    2.5673    5.6440    0.0000 C   0  0  0  0  0  0  0  0  0  0  0  0
    1.1407    6.1075    0.0000 C   0  0  0  0  0  0  0  0  0  0  0  0
   -0.1111    5.2812    0.0000 C   0  0  0  0  0  0  0  0  0  0  0  0
   -0.1459    3.7548    0.0000 C   0  0  0  0  0  0  0  0  0  0  0  0
   -0.6094    2.3282    0.0000 C   0  0  0  0  0  0  0  0  0  0  0  0
    0.3943    1.2135    0.0000 C   0  0  0  0  0  0  0  0  0  0  0  0
    1.8615    1.5254    0.0000 C   0  0  0  0  0  0  0  0  0  0  0  0
    1.2760    0.0000    0.0000 O   0  0  0  0  0  0  0  0  0  0  0  0
    0.3943   -1.2135    0.0000 C   0  0  0  0  0  0  0  0  0  0  0  0
   -1.0323   -0.7500    0.0000 C   0  0  0  0  0  0  0  0  0  0  0  0
   -1.0323    0.7500    0.0000 O   0  0  0  0  0  0  0  0  0  0  0  0
  1  2  2  0
  2  3  1  0
  3  4  1  6
  4  5  1  0
  5  6  2  0
  6  7  1  0
  8  7  1  6
  8  9  1  0
  9 10  1  0
 10 11  1  0
 10 12  1  0
 12 13  1  0
 13 14  1  0
 14 15  1  0
  8  2  1  0
 15 10  1  0
 11  3  1  0
M  END
$$$$
6
     RDKit          2D

 26 29  0  0  0  0  0  0  0  0999 V2000
    5.5697   12.9381    0.0000 C   0  0  0  0  0  0  0  0  0  0  0  0
    5.1062   11.5115    0.0000 C   0  0  0  0  0  0  0  0  0  0  0  0
    6.1099   10.3968    0.0000 C   0  0  0  0  0  0  0  0  0  0  0  0
    5.6464    8.9702    0.0000 C   0  0  0  0  0  0  0  0  0  0  0  0
    4.1791    8.6583    0.0000 C   0  0  0  0  0  0  0  0  0  0  0  0
    3.7156    7.2317    0.0000 S   0  0  0  0  0  0  0  0  0  0  0  0
    2.2890    7.6953    0.0000 O   0  0  0  0  0  0  0  0  0  0  0  0
    5.1422    6.7682    0.0000 O   0  0  0  0  0  0  0  0  0  0  0  0
    3.2521    5.8051    0.0000 N   0  0  0  0  0  0  0  0  0  0  0  0
    1.7849    5.4933    0.0000 N   0  0  0  0  0  0  0  0  0  0  0  0
    1.3213    4.0667    0.0000 C   0  0  0  0  0  0  0  0  0  0  0  0
    2.3250    2.9520    0.0000 C   0  0  0  0  0  0  0  0  0  0  0  0
    3.0944    4.2397    0.0000 C   0  0  0  0  0  0  0  0  0  0  0  0
    2.5673    5.6440    0.0000 C   0  0  0  0  0  0  0  0  0  0  0  0
    1.1407    6.1075    0.0000 C   0  0  0  0  0  0  0  0  0  0  0  0
   -0.1111    5.2812    0.0000 C   0  0  0  0  0  0  0  0  0  0  0  0
   -0.1459    3.7548    0.0000 C   0  0  0  0  0  0  0  0  0  0  0  0
   -0.6094    2.3282    0.0000 C   0  0  0  0  0  0  0  0  0  0  0  0
    0.3943    1.2135    0.0000 C   0  0  0  0  0  0  0  0  0  0  0  0
    1.8615    1.5254    0.0000 C   0  0  0  0  0  0  0  0  0  0  0  0
    1.2760    0.0000    0.0000 O   0  0  0  0  0  0  0  0  0  0  0  0
    0.3943   -1.2135    0.0000 C   0  0  0  0  0  0  0  0  0  0  0  0
   -1.0323   -0.7500    0.0000 C   0  0  0  0  0  0  0  0  0  0  0  0
   -1.0323    0.7500    0.0000 O   0  0  0  0  0  0  0  0  0  0  0  0
    3.1755    9.7730    0.0000 C   0  0  0  0  0  0  0  0  0  0  0  0
    3.6390   11.1996    0.0000 C   0  0  0  0  0  0  0  0  0  0  0  0
  1  2  1  0
  2  3  1  0
  3  4  2  0
  4  5  1  0
  5  6  1  0
  6  7  2  0
  6  8  2  0
  6  9  1  0
  9 10  1  0
 10 11  2  3
 11 12  1  0
 12 13  1  6
 13 14  1  0
 14 15  2  0
 15 16  1  0
 17 16  1  6
 17 18  1  0
 18 19  1  0
 19 20  1  0
 19 21  1  0
 21 22  1  0
 22 23  1  0
 23 24  1  0
  5 25  2  0
 25 26  1  0
 26  2  2  0
 17 11  1  0
 24 19  1  0
 20 12  1  0
M  END
$$$$
7
     RDKit          2D

 14 16  0  0  0  0  0  0  0  0999 V2000
    1.1407    6.1075    0.0000 C   0  0  0  0  0  0  0  0  0  0  0  0
    2.5673    5.6440    0.0000 C   0  0  0  0  0  0  0  0  0  0  0  0
    3.0944    4.2397    0.0000 C   0  0  0  0  0  0  0  0  0  0  0  0
    2.3250    2.9520    0.0000 C   0  0  0  0  0  0  0  0  0  0  0  0
    1.3213    4.0667    0.0000 C   0  0  0  0  0  0  0  0  0  0  0  0
   -0.1459    3.7548    0.0000 C   0  0  0  0  0  0  0  0  0  0  0  0
   -0.1111    5.2812    0.0000 C   0  0  0  0  0  0  0  0  0  0  0  0
   -0.6094    2.3282    0.0000 C   0  0  0  0  0  0  0  0  0  0  0  0
    0.3943    1.2135    0.0000 C   0  0  0  0  0  0  0  0  0  0  0  0
    1.8615    1.5254    0.0000 C   0  0  0  0  0  0  0  0  0  0  0  0
    1.2760    0.0000    0.0000 O   0  0  0  0  0  0  0  0  0  0  0  0
    0.3943   -1.2135    0.0000 C   0  0  0  0  0  0  0  0  0  0  0  0
   -1.0323   -0.7500    0.0000 C   0  0  0  0  0  0  0  0  0  0  0  0
   -1.0323    0.7500    0.0000 O   0  0  0  0  0  0  0  0  0  0  0  0
  1  2  2  0
  2  3  1  0
  4  3  1  6
  4  5  1  0
  5  6  1  0
  6  7  1  6
  6  8  1  0
  8  9  1  0
  9 10  1  0
  9 11  1  0
 11 12  1  0
 12 13  1  0
 13 14  1  0
  7  1  1  0
 14  9  1  0
 10  4  1  0
M  END
$$$$
8
     RDKit          2D

 11 12  0  0  0  0  0  0  0  0999 V2000
   -1.1254    4.6950    0.0000 O   0  0  0  0  0  0  0  0  0  0  0  0
   -0.7916    3.2327    0.0000 C   0  0  0  0  0  0  0  0  0  0  0  0
    0.6418    2.7905    0.0000 C   0  0  0  0  0  0  0  0  0  0  0  0
    1.0777    1.3515    0.0000 C   0  0  0  0  0  0  0  0  0  0  0  0
    1.7286    0.0000    0.0000 C   0  0  0  0  0  0  0  0  0  0  0  0
    1.0777   -1.3515    0.0000 C   0  0  0  0  0  0  0  0  0  0  0  0
   -0.3846   -1.6852    0.0000 C   0  0  0  0  0  0  0  0  0  0  0  0
   -1.5574   -0.7500    0.0000 C   0  0  0  0  0  0  0  0  0  0  0  0
   -1.5574    0.7500    0.0000 C   0  0  0  0  0  0  0  0  0  0  0  0
   -1.8912    2.2124    0.0000 C   0  0  0  0  0  0  0  0  0  0  0  0
   -0.3846    1.6852    0.0000 C   0  0  0  0  0  0  0  0  0  0  0  0
  1  2  2  0
  2  3  1  0
  4  3  1  1
  4  5  1  0
  5  6  1  0
  6  7  2  0
  7  8  1  0
  9  8  1  1
  9 10  1  0
  9 11  1  0
 10  2  1  0
 11  4  1  0
M  END
$$$$
9
     RDKit          2D

 13 14  0  0  0  0  0  0  0  0999 V2000
    3.0000    0.0000    0.0000 O   0  0  0  0  0  0  0  0  0  0  0  0
    1.5000    0.0000    0.0000 C   0  0  0  0  0  0  0  0  0  0  0  0
    0.7500   -1.2990    0.0000 C   0  0  0  0  0  0  0  0  0  0  0  0
   -0.7500   -1.2990    0.0000 C   0  0  0  0  0  0  0  0  0  0  0  0
   -1.5000    0.0000    0.0000 C   0  0  0  0  0  0  0  0  0  0  0  0
   -0.7500    1.2990    0.0000 C   0  0  0  0  0  0  0  0  0  0  0  0
    0.7500    1.2990    0.0000 C   0  0  0  0  0  0  0  0  0  0  0  0
   -2.2124    1.6328    0.0000 C   0  0  0  0  0  0  0  0  0  0  0  0
   -3.3851    0.6976    0.0000 C   0  0  0  0  0  0  0  0  0  0  0  0
   -4.7366    1.3484    0.0000 O   0  0  0  0  0  0  0  0  0  0  0  0
   -3.3851   -0.8024    0.0000 C   0  0  0  0  0  0  0  0  0  0  0  0
   -4.7366   -1.4532    0.0000 O   0  0  0  0  0  0  0  0  0  0  0  0
   -2.2124   -1.7376    0.0000 C   0  0  0  0  0  0  0  0  0  0  0  0
  1  2  2  0
  2  3  1  0
  4  3  1  1
  4  5  1  0
  5  6  1  0
  6  7  1  1
  6  8  1  0
  8  9  1  0
  9 10  1  6
  9 11  1  0
 11 12  1  6
 11 13  1  0
  7  2  1  0
 13  4  1  0
M  END
$$$$
10
     RDKit          2D

 27 28  0  0  0  0  0  0  0  0999 V2000
   -3.2526   -7.4293    0.0000 C   0  0  0  0  0  0  0  0  0  0  0  0
   -3.9034   -6.0779    0.0000 C   0  0  0  0  0  0  0  0  0  0  0  0
   -4.5543   -4.7264    0.0000 C   0  0  0  0  0  0  0  0  0  0  0  0
   -5.2549   -6.7287    0.0000 C   0  0  0  0  0  0  0  0  0  0  0  0
   -2.5520   -5.4270    0.0000 Si  0  0  0  0  0  4  0  0  0  0  0  0
   -1.9012   -6.7785    0.0000 C   0  0  0  0  0  0  0  0  0  0  0  0
   -3.2028   -4.0756    0.0000 C   0  0  0  0  0  0  0  0  0  0  0  0
   -1.2005   -4.7762    0.0000 O   0  0  0  0  0  0  0  0  0  0  0  0
   -1.0884   -3.2804    0.0000 C   0  0  0  0  0  0  0  0  0  0  0  0
    0.3079   -2.7324    0.0000 C   0  0  0  0  0  0  0  0  0  0  0  0
    0.7500   -1.2990    0.0000 C   0  0  0  0  0  0  0  0  0  0  0  0
    1.5000    0.0000    0.0000 C   0  0  0  0  0  0  0  0  0  0  0  0
    0.7500    1.2990    0.0000 C   0  0  0  0  0  0  0  0  0  0  0  0
    1.5000    2.5981    0.0000 O   0  0  0  0  0  0  0  0  0  0  0  0
   -0.7500    1.2990    0.0000 C   0  0  0  0  0  0  0  0  0  0  0  0
   -1.5000    0.0000    0.0000 C   0  0  0  0  0  0  0  0  0  0  0  0
   -0.7500   -1.2990    0.0000 C   0  0  0  0  0  0  0  0  0  0  0  0
   -2.6110   -1.0472    0.0000 C   0  0  0  0  0  0  0  0  0  0  0  0
   -2.3875   -2.5304    0.0000 C   0  0  0  0  0  0  0  0  0  0  0  0
   -3.6268   -3.3754    0.0000 O   0  0  0  0  0  0  0  0  0  0  0  0
   -4.9783   -2.7246    0.0000 Si  0  0  0  0  0  4  0  0  0  0  0  0
   -5.6291   -4.0760    0.0000 C   0  0  0  0  0  0  0  0  0  0  0  0
   -4.3275   -1.3731    0.0000 C   0  0  0  0  0  0  0  0  0  0  0  0
   -6.3297   -2.0737    0.0000 C   0  0  0  0  0  0  0  0  0  0  0  0
   -5.6789   -0.7223    0.0000 C   0  0  0  0  0  0  0  0  0  0  0  0
   -6.9806   -3.4252    0.0000 C   0  0  0  0  0  0  0  0  0  0  0  0
   -7.6812   -1.4229    0.0000 C   0  0  0  0  0  0  0  0  0  0  0  0
  1  2  1  0
  2  3  1  0
  2  4  1  0
  2  5  1  0
  5  6  1  0
  5  7  1  0
  5  8  1  0
  9  8  1  6
  9 10  1  0
 11 10  1  1
 11 12  1  0
 12 13  1  0
 13 14  2  0
 13 15  1  0
 16 15  1  1
 16 17  1  0
 16 18  1  0
 18 19  1  0
 19 20  1  6
 20 21  1  0
 21 22  1  0
 21 23  1  0
 21 24  1  0
 24 25  1  0
 24 26  1  0
 24 27  1  0
 19  9  1  0
 17 11  1  0
M  END
$$$$
11
     RDKit          2D

 27 28  0  0  0  0  0  0  0  0999 V2000
   -3.2526   -7.4293    0.0000 C   0  0  0  0  0  0  0  0  0  0  0  0
   -3.9034   -6.0779    0.0000 C   0  0  0  0  0  0  0  0  0  0  0  0
   -4.5543   -4.7264    0.0000 C   0  0  0  0  0  0  0  0  0  0  0  0
   -5.2549   -6.7287    0.0000 C   0  0  0  0  0  0  0  0  0  0  0  0
   -2.5520   -5.4270    0.0000 Si  0  0  0  0  0  4  0  0  0  0  0  0
   -1.9012   -6.7785    0.0000 C   0  0  0  0  0  0  0  0  0  0  0  0
   -3.2028   -4.0756    0.0000 C   0  0  0  0  0  0  0  0  0  0  0  0
   -1.2005   -4.7762    0.0000 O   0  0  0  0  0  0  0  0  0  0  0  0
   -1.0884   -3.2804    0.0000 C   0  0  0  0  0  0  0  0  0  0  0  0
    0.3079   -2.7324    0.0000 C   0  0  0  0  0  0  0  0  0  0  0  0
    0.7500   -1.2990    0.0000 C   0  0  0  0  0  0  0  0  0  0  0  0
    1.5000    0.0000    0.0000 C   0  0  0  0  0  0  0  0  0  0  0  0
    0.7500    1.2990    0.0000 C   0  0  0  0  0  0  0  0  0  0  0  0
    1.5000    2.5981    0.0000 O   0  0  0  0  0  0  0  0  0  0  0  0
   -0.7500    1.2990    0.0000 C   0  0  0  0  0  0  0  0  0  0  0  0
   -1.5000    0.0000    0.0000 C   0  0  0  0  0  0  0  0  0  0  0  0
   -0.7500   -1.2990    0.0000 C   0  0  0  0  0  0  0  0  0  0  0  0
   -2.6110   -1.0472    0.0000 C   0  0  0  0  0  0  0  0  0  0  0  0
   -2.3875   -2.5304    0.0000 C   0  0  0  0  0  0  0  0  0  0  0  0
   -3.6268   -3.3754    0.0000 O   0  0  0  0  0  0  0  0  0  0  0  0
   -4.9783   -2.7246    0.0000 Si  0  0  0  0  0  4  0  0  0  0  0  0
   -5.6291   -4.0760    0.0000 C   0  0  0  0  0  0  0  0  0  0  0  0
   -4.3275   -1.3731    0.0000 C   0  0  0  0  0  0  0  0  0  0  0  0
   -6.3297   -2.0737    0.0000 C   0  0  0  0  0  0  0  0  0  0  0  0
   -5.6789   -0.7223    0.0000 C   0  0  0  0  0  0  0  0  0  0  0  0
   -6.9806   -3.4252    0.0000 C   0  0  0  0  0  0  0  0  0  0  0  0
   -7.6812   -1.4229    0.0000 C   0  0  0  0  0  0  0  0  0  0  0  0
  1  2  1  0
  2  3  1  0
  2  4  1  0
  2  5  1  0
  5  6  1  0
  5  7  1  0
  5  8  1  0
  9  8  1  6
  9 10  1  0
 11 10  1  1
 11 12  1  0
 12 13  1  0
 13 14  2  0
 13 15  1  0
 15 16  2  0
 16 17  1  0
 16 18  1  0
 18 19  1  0
 19 20  1  6
 20 21  1  0
 21 22  1  0
 21 23  1  0
 21 24  1  0
 24 25  1  0
 24 26  1  0
 24 27  1  0
 19  9  1  0
 17 11  1  0
M  END
$$$$
dibromopropene
     RDKit          2D

  5  4  0  0  0  0  0  0  0  0999 V2000
    0.0000    0.0000    0.0000 C   0  0  0  0  0  0  0  0  0  0  0  0
    1.2990    0.7500    0.0000 C   0  0  0  0  0  0  0  0  0  0  0  0
    1.2990    2.2500    0.0000 Br  0  0  0  0  0  0  0  0  0  0  0  0
    2.5981   -0.0000    0.0000 C   0  0  0  0  0  0  0  0  0  0  0  0
    3.8971    0.7500    0.0000 Br  0  0  0  0  0  0  0  0  0  0  0  0
  1  2  2  0
  2  3  1  0
  2  4  1  0
  4  5  1  0
M  END
$$$$
formaldehyde
     RDKit          2D

  2  1  0  0  0  0  0  0  0  0999 V2000
    0.0000    0.0000    0.0000 C   0  0  0  0  0  0  0  0  0  0  0  0
    1.2990    0.7500    0.0000 O   0  0  0  0  0  0  0  0  0  0  0  0
  1  2  2  0
M  END
$$$$
S1
     RDKit          2D

  6  5  0  0  0  0  0  0  0  0999 V2000
    0.0000    0.0000    0.0000 C   0  0  0  0  0  0  0  0  0  0  0  0
    1.2990    0.7500    0.0000 C   0  0  0  0  0  0  0  0  0  0  0  0
    1.2990    2.2500    0.0000 Br  0  0  0  0  0  0  0  0  0  0  0  0
    2.5981   -0.0000    0.0000 C   0  0  0  0  0  0  0  0  0  0  0  0
    3.8971    0.7500    0.0000 C   0  0  0  0  0  0  0  0  0  0  0  0
    5.1962   -0.0000    0.0000 O   0  0  0  0  0  0  0  0  0  0  0  0
  1  2  2  0
  2  3  1  0
  2  4  1  0
  4  5  1  0
  5  6  1  0
M  END
$$$$
S2
     RDKit          2D

 13 12  0  0  0  0  0  0  0  0999 V2000
    0.0000    0.0000    0.0000 C   0  0  0  0  0  0  0  0  0  0  0  0
    1.2990    0.7500    0.0000 C   0  0  0  0  0  0  0  0  0  0  0  0
    1.2990    2.2500    0.0000 Br  0  0  0  0  0  0  0  0  0  0  0  0
    2.5981   -0.0000    0.0000 C   0  0  0  0  0  0  0  0  0  0  0  0
    3.8971    0.7500    0.0000 C   0  0  0  0  0  0  0  0  0  0  0  0
    5.1962   -0.0000    0.0000 O   0  0  0  0  0  0  0  0  0  0  0  0
    6.4952    0.7500    0.0000 Si  0  0  0  0  0  4  0  0  0  0  0  0
    7.2452   -0.5490    0.0000 C   0  0  0  0  0  0  0  0  0  0  0  0
    5.7452    2.0490    0.0000 C   0  0  0  0  0  0  0  0  0  0  0  0
    7.7942    1.5000    0.0000 C   0  0  0  0  0  0  0  0  0  0  0  0
    7.0442    2.7990    0.0000 C   0  0  0  0  0  0  0  0  0  0  0  0
    8.5442    0.2010    0.0000 C   0  0  0  0  0  0  0  0  0  0  0  0
    9.0933    2.2500    0.0000 C   0  0  0  0  0  0  0  0  0  0  0  0
  1  2  2  0
  2  3  1  0
  2  4  1  0
  4  5  1  0
  5  6  1  0
  6  7  1  0
  7  8  1  0
  7  9  1  0
  7 10  1  0
 10 11  1  0
 10 12  1  0
 10 13  1  0
M  END
$$$$
12
     RDKit          2D

 39 40  0  0  0  0  0  0  0  0999 V2000
    3.0000   -2.5981    0.0000 C   0  0  0  0  0  0  0  0  0  0  0  0
    1.5000   -2.5981    0.0000 C   0  0  0  0  0  0  0  0  0  0  0  0
    0.7500   -3.8971    0.0000 C   0  0  0  0  0  0  0  0  0  0  0  0
    1.5000   -5.1962    0.0000 C   0  0  0  0  0  0  0  0  0  0  0  0
    0.7500   -6.4952    0.0000 O   0  0  0  0  0  0  0  0  0  0  0  0
    1.5000   -7.7942    0.0000 Si  0  0  0  0  0  4  0  0  0  0  0  0
    0.2010   -8.5442    0.0000 C   0  0  0  0  0  0  0  0  0  0  0  0
    2.7990   -7.0442    0.0000 C   0  0  0  0  0  0  0  0  0  0  0  0
    2.2500   -9.0933    0.0000 C   0  0  0  0  0  0  0  0  0  0  0  0
    3.5490   -8.3433    0.0000 C   0  0  0  0  0  0  0  0  0  0  0  0
    0.9510   -9.8433    0.0000 C   0  0  0  0  0  0  0  0  0  0  0  0
    3.0000  -10.3923    0.0000 C   0  0  0  0  0  0  0  0  0  0  0  0
    0.7500   -1.2990    0.0000 C   0  0  0  0  0  0  0  0  0  0  0  0
    1.5000    0.0000    0.0000 C   0  0  0  0  0  0  0  0  0  0  0  0
    0.7500    1.2990    0.0000 C   0  0  0  0  0  0  0  0  0  0  0  0
    1.5000    2.5981    0.0000 O   0  0  0  0  0  0  0  0  0  0  0  0
   -0.7500    1.2990    0.0000 C   0  0  0  0  0  0  0  0  0  0  0  0
   -1.5000    0.0000    0.0000 C   0  0  0  0  0  0  0  0  0  0  0  0
   -2.5203   -1.0996    0.0000 C   0  0  0  0  0  0  0  0  0  0  0  0
   -2.2967   -2.5828    0.0000 C   0  0  0  0  0  0  0  0  0  0  0  0
   -3.5361   -3.4278    0.0000 O   0  0  0  0  0  0  0  0  0  0  0  0
   -4.8875   -2.7770    0.0000 Si  0  0  0  0  0  4  0  0  0  0  0  0
   -5.5383   -4.1284    0.0000 C   0  0  0  0  0  0  0  0  0  0  0  0
   -4.2367   -1.4255    0.0000 C   0  0  0  0  0  0  0  0  0  0  0  0
   -6.2390   -2.1262    0.0000 C   0  0  0  0  0  0  0  0  0  0  0  0
   -5.5881   -0.7747    0.0000 C   0  0  0  0  0  0  0  0  0  0  0  0
   -6.8898   -3.4776    0.0000 C   0  0  0  0  0  0  0  0  0  0  0  0
   -7.5904   -1.4753    0.0000 C   0  0  0  0  0  0  0  0  0  0  0  0
   -0.9977   -3.3328    0.0000 C   0  0  0  0  0  0  0  0  0  0  0  0
   -1.1098   -4.8286    0.0000 O   0  0  0  0  0  0  0  0  0  0  0  0
   -2.4612   -5.4795    0.0000 Si  0  0  0  0  0  4  0  0  0  0  0  0
   -1.8104   -6.8309    0.0000 C   0  0  0  0  0  0  0  0  0  0  0  0
   -3.1120   -4.1280    0.0000 C   0  0  0  0  0  0  0  0  0  0  0  0
   -3.8127   -6.1303    0.0000 C   0  0  0  0  0  0  0  0  0  0  0  0
   -3.1618   -7.4817    0.0000 C   0  0  0  0  0  0  0  0  0  0  0  0
   -4.4635   -4.7788    0.0000 C   0  0  0  0  0  0  0  0  0  0  0  0
   -5.1641   -6.7811    0.0000 C   0  0  0  0  0  0  0  0  0  0  0  0
    0.3987   -2.7848    0.0000 C   0  0  0  0  0  0  0  0  0  0  0  0
   -0.7500   -1.2990    0.0000 C   0  0  0  0  0  0  0  0  0  0  0  0
  1  2  2  0
  2  3  1  0
  3  4  1  0
  4  5  1  0
  5  6  1  0
  6  7  1  0
  6  8  1  0
  6  9  1  0
  9 10  1  0
  9 11  1  0
  9 12  1  0
 13  2  1  1
 13 14  1  0
 14 15  1  0
 15 16  2  0
 15 17  1  0
 18 17  1  6
 18 19  1  0
 19 20  1  0
 20 21  1  1
 21 22  1  0
 22 23  1  0
 22 24  1  0
 22 25  1  0
 25 26  1  0
 25 27  1  0
 25 28  1  0
 20 29  1  0
 29 30  1  1
 30 31  1  0
 31 32  1  0
 31 33  1  0
 31 34  1  0
 34 35  1  0
 34 36  1  0
 34 37  1  0
 29 38  1  0
 18 39  1  0
 38 13  1  0
 39 13  1  0
M  END
$$$$
13
     RDKit          2D

 32 33  0  0  0  0  0  0  0  0999 V2000
    3.0000   -2.5981    0.0000 C   0  0  0  0  0  0  0  0  0  0  0  0
    1.5000   -2.5981    0.0000 C   0  0  0  0  0  0  0  0  0  0  0  0
    0.7500   -3.8971    0.0000 C   0  0  0  0  0  0  0  0  0  0  0  0
    1.5000   -5.1962    0.0000 C   0  0  0  0  0  0  0  0  0  0  0  0
    0.7500   -6.4952    0.0000 O   0  0  0  0  0  0  0  0  0  0  0  0
    0.7500   -1.2990    0.0000 C   0  0  0  0  0  0  0  0  0  0  0  0
    1.5000    0.0000    0.0000 C   0  0  0  0  0  0  0  0  0  0  0  0
    0.7500    1.2990    0.0000 C   0  0  0  0  0  0  0  0  0  0  0  0
    1.5000    2.5981    0.0000 O   0  0  0  0  0  0  0  0  0  0  0  0
   -0.7500    1.2990    0.0000 C   0  0  0  0  0  0  0  0  0  0  0  0
   -1.5000    0.0000    0.0000 C   0  0  0  0  0  0  0  0  0  0  0  0
   -2.5203   -1.0996    0.0000 C   0  0  0  0  0  0  0  0  0  0  0  0
   -2.2967   -2.5828    0.0000 C   0  0  0  0  0  0  0  0  0  0  0  0
   -3.5361   -3.4278    0.0000 O   0  0  0  0  0  0  0  0  0  0  0  0
   -4.8875   -2.7770    0.0000 Si  0  0  0  0  0  4  0  0  0  0  0  0
   -5.5383   -4.1284    0.0000 C   0  0  0  0  0  0  0  0  0  0  0  0
   -4.2367   -1.4255    0.0000 C   0  0  0  0  0  0  0  0  0  0  0  0
   -6.2390   -2.1262    0.0000 C   0  0  0  0  0  0  0  0  0  0  0  0
   -5.5881   -0.7747    0.0000 C   0  0  0  0  0  0  0  0  0  0  0  0
   -6.8898   -3.4776    0.0000 C   0  0  0  0  0  0  0  0  0  0  0  0
   -7.5904   -1.4753    0.0000 C   0  0  0  0  0  0  0  0  0  0  0  0
   -0.9977   -3.3328    0.0000 C   0  0  0  0  0  0  0  0  0  0  0  0
   -1.1098   -4.8286    0.0000 O   0  0  0  0  0  0  0  0  0  0  0  0
   -2.4612   -5.4795    0.0000 Si  0  0  0  0  0  4  0  0  0  0  0  0
   -1.8104   -6.8309    0.0000 C   0  0  0  0  0  0  0  0  0  0  0  0
   -3.1120   -4.1280    0.0000 C   0  0  0  0  0  0  0  0  0  0  0  0
   -3.8127   -6.1303    0.0000 C   0  0  0  0  0  0  0  0  0  0  0  0
   -3.1618   -7.4817    0.0000 C   0  0  0  0  0  0  0  0  0  0  0  0
   -4.4635   -4.7788    0.0000 C   0  0  0  0  0  0  0  0  0  0  0  0
   -5.1641   -6.7811    0.0000 C   0  0  0  0  0  0  0  0  0  0  0  0
    0.3987   -2.7848    0.0000 C   0  0  0  0  0  0  0  0  0  0  0  0
   -0.7500   -1.2990    0.0000 C   0  0  0  0  0  0  0  0  0  0  0  0
  1  2  2  0
  2  3  1  0
  3  4  1  0
  4  5  1  0
  6  2  1  1
  6  7  1  0
  7  8  1  0
  8  9  2  0
  8 10  1  0
 11 10  1  6
 11 12  1  0
 12 13  1  0
 13 14  1  1
 14 15  1  0
 15 16  1  0
 15 17  1  0
 15 18  1  0
 18 19  1  0
 18 20  1  0
 18 21  1  0
 13 22  1  0
 22 23  1  1
 23 24  1  0
 24 25  1  0
 24 26  1  0
 24 27  1  0
 27 28  1  0
 27 29  1  0
 27 30  1  0
 22 31  1  0
 11 32  1  0
 31  6  1  0
 32  6  1  0
M  END
$$$$
14
     RDKit          2D

 32 33  0  0  0  0  0  0  0  0999 V2000
    3.0000   -2.5981    0.0000 C   0  0  0  0  0  0  0  0  0  0  0  0
    1.5000   -2.5981    0.0000 C   0  0  0  0  0  0  0  0  0  0  0  0
    0.7500   -3.8971    0.0000 C   0  0  0  0  0  0  0  0  0  0  0  0
    1.5000   -5.1962    0.0000 C   0  0  0  0  0  0  0  0  0  0  0  0
    0.7500   -6.4952    0.0000 O   0  0  0  0  0  0  0  0  0  0  0  0
    0.7500   -1.2990    0.0000 C   0  0  0  0  0  0  0  0  0  0  0  0
    1.5000    0.0000    0.0000 C   0  0  0  0  0  0  0  0  0  0  0  0
    0.7500    1.2990    0.0000 C   0  0  0  0  0  0  0  0  0  0  0  0
    1.5000    2.5981    0.0000 O   0  0  0  0  0  0  0  0  0  0  0  0
   -0.7500    1.2990    0.0000 C   0  0  0  0  0  0  0  0  0  0  0  0
   -1.5000    0.0000    0.0000 C   0  0  0  0  0  0  0  0  0  0  0  0
   -2.5203   -1.0996    0.0000 C   0  0  0  0  0  0  0  0  0  0  0  0
   -2.2967   -2.5828    0.0000 C   0  0  0  0  0  0  0  0  0  0  0  0
   -3.5361   -3.4278    0.0000 O   0  0  0  0  0  0  0  0  0  0  0  0
   -4.8875   -2.7770    0.0000 Si  0  0  0  0  0  4  0  0  0  0  0  0
   -5.5383   -4.1284    0.0000 C   0  0  0  0  0  0  0  0  0  0  0  0
   -4.2367   -1.4255    0.0000 C   0  0  0  0  0  0  0  0  0  0  0  0
   -6.2390   -2.1262    0.0000 C   0  0  0  0  0  0  0  0  0  0  0  0
   -5.5881   -0.7747    0.0000 C   0  0  0  0  0  0  0  0  0  0  0  0
   -6.8898   -3.4776    0.0000 C   0  0  0  0  0  0  0  0  0  0  0  0
   -7.5904   -1.4753    0.0000 C   0  0  0  0  0  0  0  0  0  0  0  0
   -0.9977   -3.3328    0.0000 C   0  0  0  0  0  0  0  0  0  0  0  0
   -1.1098   -4.8286    0.0000 O   0  0  0  0  0  0  0  0  0  0  0  0
   -2.4612   -5.4795    0.0000 Si  0  0  0  0  0  4  0  0  0  0  0  0
   -1.8104   -6.8309    0.0000 C   0  0  0  0  0  0  0  0  0  0  0  0
   -3.1120   -4.1280    0.0000 C   0  0  0  0  0  0  0  0  0  0  0  0
   -3.8127   -6.1303    0.0000 C   0  0  0  0  0  0  0  0  0  0  0  0
   -3.1618   -7.4817    0.0000 C   0  0  0  0  0  0  0  0  0  0  0  0
   -4.4635   -4.7788    0.0000 C   0  0  0  0  0  0  0  0  0  0  0  0
   -5.1641   -6.7811    0.0000 C   0  0  0  0  0  0  0  0  0  0  0  0
    0.3987   -2.7848    0.0000 C   0  0  0  0  0  0  0  0  0  0  0  0
   -0.7500   -1.2990    0.0000 C   0  0  0  0  0  0  0  0  0  0  0  0
  1  2  2  0
  2  3  1  0
  3  4  1  0
  4  5  2  0
  6  2  1  1
  6  7  1  0
  7  8  1  0
  8  9  2  0
  8 10  1  0
 11 10  1  6
 11 12  1  0
 12 13  1  0
 13 14  1  1
 14 15  1  0
 15 16  1  0
 15 17  1  0
 15 18  1  0
 18 19  1  0
 18 20  1  0
 18 21  1  0
 13 22  1  0
 22 23  1  1
 23 24  1  0
 24 25  1  0
 24 26  1  0
 24 27  1  0
 27 28  1  0
 27 29  1  0
 27 30  1  0
 22 31  1  0
 11 32  1  0
 31  6  1  0
 32  6  1  0
M  END
$$$$
beta15
     RDKit          2D

 32 34  0  0  0  0  0  0  0  0999 V2000
   -3.1344   -1.4050    0.0000 C   0  0  0  0  0  0  0  0  0  0  0  0
   -2.8961    0.0759    0.0000 C   0  0  0  0  0  0  0  0  0  0  0  0
   -3.9542    1.1392    0.0000 C   0  0  0  0  0  0  0  0  0  0  0  0
   -3.2699    2.4740    0.0000 C   0  0  0  0  0  0  0  0  0  0  0  0
   -3.9476    3.8122    0.0000 O   0  0  0  0  0  0  0  0  0  0  0  0
   -1.7890    2.2357    0.0000 C   0  0  0  0  0  0  0  0  0  0  0  0
   -0.6894    3.2560    0.0000 C   0  0  0  0  0  0  0  0  0  0  0  0
   -1.0232    4.7184    0.0000 O   0  0  0  0  0  0  0  0  0  0  0  0
    0.7440    2.8138    0.0000 C   0  0  0  0  0  0  0  0  0  0  0  0
    1.0777    1.3515    0.0000 C   0  0  0  0  0  0  0  0  0  0  0  0
    1.7286    0.0000    0.0000 C   0  0  0  0  0  0  0  0  0  0  0  0
    1.0777   -1.3515    0.0000 C   0  0  0  0  0  0  0  0  0  0  0  0
    2.0130   -2.5242    0.0000 O   0  0  0  0  0  0  0  0  0  0  0  0
    1.4650   -3.9205    0.0000 Si  0  0  0  0  0  4  0  0  0  0  0  0
    2.8613   -4.4685    0.0000 C   0  0  0  0  0  0  0  0  0  0  0  0
    0.0687   -3.3725    0.0000 C   0  0  0  0  0  0  0  0  0  0  0  0
    0.9170   -5.3168    0.0000 C   0  0  0  0  0  0  0  0  0  0  0  0
    2.3133   -5.8648    0.0000 C   0  0  0  0  0  0  0  0  0  0  0  0
   -0.4794   -4.7688    0.0000 C   0  0  0  0  0  0  0  0  0  0  0  0
    0.3689   -6.7131    0.0000 C   0  0  0  0  0  0  0  0  0  0  0  0
   -0.3846   -1.6852    0.0000 C   0  0  0  0  0  0  0  0  0  0  0  0
   -0.7184   -3.1476    0.0000 O   0  0  0  0  0  0  0  0  0  0  0  0
   -2.1518   -3.5898    0.0000 Si  0  0  0  0  0  4  0  0  0  0  0  0
   -1.7097   -5.0231    0.0000 C   0  0  0  0  0  0  0  0  0  0  0  0
   -2.5939   -2.1564    0.0000 C   0  0  0  0  0  0  0  0  0  0  0  0
   -3.5851   -4.0319    0.0000 C   0  0  0  0  0  0  0  0  0  0  0  0
   -4.0273   -2.5985    0.0000 C   0  0  0  0  0  0  0  0  0  0  0  0
   -3.1430   -5.4653    0.0000 C   0  0  0  0  0  0  0  0  0  0  0  0
   -5.0185   -4.4740    0.0000 C   0  0  0  0  0  0  0  0  0  0  0  0
   -1.5574   -0.7500    0.0000 C   0  0  0  0  0  0  0  0  0  0  0  0
   -1.5574    0.7500    0.0000 C   0  0  0  0  0  0  0  0  0  0  0  0
   -0.3846    1.6852    0.0000 C   0  0  0  0  0  0  0  0  0  0  0  0
  1  2  2  0
  2  3  1  0
  3  4  1  0
  4  5  1  1
  4  6  1  0
  6  7  1  6
  7  8  2  0
  7  9  1  0
 10  9  1  1
 10 11  1  0
 11 12  1  0
 12 13  1  6
 13 14  1  0
 14 15  1  0
 14 16  1  0
 14 17  1  0
 17 18  1  0
 17 19  1  0
 17 20  1  0
 12 21  1  0
 21 22  1  6
 22 23  1  0
 23 24  1  0
 23 25  1  0
 23 26  1  0
 26 27  1  0
 26 28  1  0
 26 29  1  0
 21 30  1  0
 31 30  1  1
 31 32  1  0
 31  2  1  0
 31  6  1  0
 32 10  1  0
M  END
$$$$
alpha15
     RDKit          2D

 32 34  0  0  0  0  0  0  0  0999 V2000
   -3.1344   -1.4050    0.0000 C   0  0  0  0  0  0  0  0  0  0  0  0
   -2.8961    0.0759    0.0000 C   0  0  0  0  0  0  0  0  0  0  0  0
   -3.9542    1.1392    0.0000 C   0  0  0  0  0  0  0  0  0  0  0  0
   -3.2699    2.4740    0.0000 C   0  0  0  0  0  0  0  0  0  0  0  0
   -3.9476    3.8122    0.0000 O   0  0  0  0  0  0  0  0  0  0  0  0
   -1.7890    2.2357    0.0000 C   0  0  0  0  0  0  0  0  0  0  0  0
   -0.6894    3.2560    0.0000 C   0  0  0  0  0  0  0  0  0  0  0  0
   -1.0232    4.7184    0.0000 O   0  0  0  0  0  0  0  0  0  0  0  0
    0.7440    2.8138    0.0000 C   0  0  0  0  0  0  0  0  0  0  0  0
    1.0777    1.3515    0.0000 C   0  0  0  0  0  0  0  0  0  0  0  0
    1.7286    0.0000    0.0000 C   0  0  0  0  0  0  0  0  0  0  0  0
    1.0777   -1.3515    0.0000 C   0  0  0  0  0  0  0  0  0  0  0  0
    2.0130   -2.5242    0.0000 O   0  0  0  0  0  0  0  0  0  0  0  0
    1.4650   -3.9205    0.0000 Si  0  0  0  0  0  4  0  0  0  0  0  0
    2.8613   -4.4685    0.0000 C   0  0  0  0  0  0  0  0  0  0  0  0
    0.0687   -3.3725    0.0000 C   0  0  0  0  0  0  0  0  0  0  0  0
    0.9170   -5.3168    0.0000 C   0  0  0  0  0  0  0  0  0  0  0  0
    2.3133   -5.8648    0.0000 C   0  0  0  0  0  0  0  0  0  0  0  0
   -0.4794   -4.7688    0.0000 C   0  0  0  0  0  0  0  0  0  0  0  0
    0.3689   -6.7131    0.0000 C   0  0  0  0  0  0  0  0  0  0  0  0
   -0.3846   -1.6852    0.0000 C   0  0  0  0  0  0  0  0  0  0  0  0
   -0.7184   -3.1476    0.0000 O   0  0  0  0  0  0  0  0  0  0  0  0
   -2.1518   -3.5898    0.0000 Si  0  0  0  0  0  4  0  0  0  0  0  0
   -1.7097   -5.0231    0.0000 C   0  0  0  0  0  0  0  0  0  0  0  0
   -2.5939   -2.1564    0.0000 C   0  0  0  0  0  0  0  0  0  0  0  0
   -3.5851   -4.0319    0.0000 C   0  0  0  0  0  0  0  0  0  0  0  0
   -4.0273   -2.5985    0.0000 C   0  0  0  0  0  0  0  0  0  0  0  0
   -3.1430   -5.4653    0.0000 C   0  0  0  0  0  0  0  0  0  0  0  0
   -5.0185   -4.4740    0.0000 C   0  0  0  0  0  0  0  0  0  0  0  0
   -1.5574   -0.7500    0.0000 C   0  0  0  0  0  0  0  0  0  0  0  0
   -1.5574    0.7500    0.0000 C   0  0  0  0  0  0  0  0  0  0  0  0
   -0.3846    1.6852    0.0000 C   0  0  0  0  0  0  0  0  0  0  0  0
  1  2  2  0
  2  3  1  0
  3  4  1  0
  4  5  1  6
  4  6  1  0
  6  7  1  6
  7  8  2  0
  7  9  1  0
 10  9  1  1
 10 11  1  0
 11 12  1  0
 12 13  1  6
 13 14  1  0
 14 15  1  0
 14 16  1  0
 14 17  1  0
 17 18  1  0
 17 19  1  0
 17 20  1  0
 12 21  1  0
 21 22  1  6
 22 23  1  0
 23 24  1  0
 23 25  1  0
 23 26  1  0
 26 27  1  0
 26 28  1  0
 26 29  1  0
 21 30  1  0
 31 30  1  1
 31 32  1  0
 31  2  1  0
 31  6  1  0
 32 10  1  0
M  END
$$$$
15prime
     RDKit          2D

 31 33  0  0  0  0  0  0  0  0999 V2000
    2.7760    0.0000    0.0000 C   0  0  0  0  0  0  0  0  0  0  0  0
    1.2760    0.0000    0.0000 C   0  0  0  0  0  0  0  0  0  0  0  0
    0.3943    1.2135    0.0000 C   0  0  0  0  0  0  0  0  0  0  0  0
   -1.0323    0.7500    0.0000 C   0  0  0  0  0  0  0  0  0  0  0  0
   -1.0323   -0.7500    0.0000 C   0  0  0  0  0  0  0  0  0  0  0  0
   -2.1470   -1.7537    0.0000 C   0  0  0  0  0  0  0  0  0  0  0  0
   -3.5736   -1.2902    0.0000 O   0  0  0  0  0  0  0  0  0  0  0  0
   -1.8351   -3.2209    0.0000 C   0  0  0  0  0  0  0  0  0  0  0  0
   -0.4086   -3.6844    0.0000 C   0  0  0  0  0  0  0  0  0  0  0  0
    0.8791   -4.4538    0.0000 C   0  0  0  0  0  0  0  0  0  0  0  0
    2.2835   -3.9267    0.0000 C   0  0  0  0  0  0  0  0  0  0  0  0
    3.3677   -4.9633    0.0000 O   0  0  0  0  0  0  0  0  0  0  0  0
    3.0120   -6.4206    0.0000 Si  0  0  0  0  0  4  0  0  0  0  0  0
    4.4693   -6.7762    0.0000 C   0  0  0  0  0  0  0  0  0  0  0  0
    1.5548   -6.0649    0.0000 C   0  0  0  0  0  0  0  0  0  0  0  0
    2.6564   -7.8778    0.0000 C   0  0  0  0  0  0  0  0  0  0  0  0
    1.1992   -7.5222    0.0000 C   0  0  0  0  0  0  0  0  0  0  0  0
    4.1137   -8.2334    0.0000 C   0  0  0  0  0  0  0  0  0  0  0  0
    2.3008   -9.3350    0.0000 C   0  0  0  0  0  0  0  0  0  0  0  0
    2.7470   -2.5001    0.0000 C   0  0  0  0  0  0  0  0  0  0  0  0
    4.2334   -2.2988    0.0000 O   0  0  0  0  0  0  0  0  0  0  0  0
    5.1510   -3.4854    0.0000 Si  0  0  0  0  0  4  0  0  0  0  0  0
    6.3376   -2.5678    0.0000 C   0  0  0  0  0  0  0  0  0  0  0  0
    3.9644   -4.4030    0.0000 C   0  0  0  0  0  0  0  0  0  0  0  0
    6.0686   -4.6720    0.0000 C   0  0  0  0  0  0  0  0  0  0  0  0
    7.2552   -3.7544    0.0000 C   0  0  0  0  0  0  0  0  0  0  0  0
    4.8820   -5.5896    0.0000 C   0  0  0  0  0  0  0  0  0  0  0  0
    6.9862   -5.8586    0.0000 C   0  0  0  0  0  0  0  0  0  0  0  0
    1.9207   -1.2483    0.0000 C   0  0  0  0  0  0  0  0  0  0  0  0
    0.3943   -1.2135    0.0000 C   0  0  0  0  0  0  0  0  0  0  0  0
    0.7062   -2.6807    0.0000 C   0  0  0  0  0  0  0  0  0  0  0  0
  1  2  1  0
  2  3  2  0
  3  4  1  0
  4  5  2  0
  5  6  1  0
  6  7  2  0
  6  8  1  0
  9  8  1  6
  9 10  1  0
 10 11  1  0
 11 12  1  1
 12 13  1  0
 13 14  1  0
 13 15  1  0
 13 16  1  0
 16 17  1  0
 16 18  1  0
 16 19  1  0
 11 20  1  0
 20 21  1  1
 21 22  1  0
 22 23  1  0
 22 24  1  0
 22 25  1  0
 25 26  1  0
 25 27  1  0
 25 28  1  0
 20 29  1  0
 30 29  1  6
 30 31  1  0
 30  2  1  0
 30  5  1  0
 31  9  1  0
M  END
$$$$
16
     RDKit          2D

 33 35  0  0  0  0  0  0  0  0999 V2000
   -2.9795   -1.5133    0.0000 C   0  0  0  0  0  0  0  0  0  0  0  0
   -2.8451   -0.0193    0.0000 C   0  0  0  0  0  0  0  0  0  0  0  0
   -3.9747    0.9676    0.0000 C   0  0  0  0  0  0  0  0  0  0  0  0
   -3.3851    2.3469    0.0000 C   0  0  0  0  0  0  0  0  0  0  0  0
   -4.1545    3.6345    0.0000 O   0  0  0  0  0  0  0  0  0  0  0  0
   -1.8912    2.2124    0.0000 C   0  0  0  0  0  0  0  0  0  0  0  0
   -1.5574    0.7500    0.0000 C   0  0  0  0  0  0  0  0  0  0  0  0
   -0.3846    1.6852    0.0000 C   0  0  0  0  0  0  0  0  0  0  0  0
    1.0777    1.3515    0.0000 C   0  0  0  0  0  0  0  0  0  0  0  0
    1.7286    0.0000    0.0000 C   0  0  0  0  0  0  0  0  0  0  0  0
    1.0777   -1.3515    0.0000 C   0  0  0  0  0  0  0  0  0  0  0  0
    2.0130   -2.5242    0.0000 O   0  0  0  0  0  0  0  0  0  0  0  0
    1.4650   -3.9205    0.0000 Si  0  0  0  0  0  4  0  0  0  0  0  0
    2.8613   -4.4685    0.0000 C   0  0  0  0  0  0  0  0  0  0  0  0
    0.0687   -3.3725    0.0000 C   0  0  0  0  0  0  0  0  0  0  0  0
    0.9170   -5.3168    0.0000 C   0  0  0  0  0  0  0  0  0  0  0  0
    2.3133   -5.8648    0.0000 C   0  0  0  0  0  0  0  0  0  0  0  0
   -0.4794   -4.7688    0.0000 C   0  0  0  0  0  0  0  0  0  0  0  0
    0.3689   -6.7131    0.0000 C   0  0  0  0  0  0  0  0  0  0  0  0
   -0.3846   -1.6852    0.0000 C   0  0  0  0  0  0  0  0  0  0  0  0
   -0.7184   -3.1476    0.0000 O   0  0  0  0  0  0  0  0  0  0  0  0
   -2.1518   -3.5898    0.0000 Si  0  0  0  0  0  4  0  0  0  0  0  0
   -1.7097   -5.0231    0.0000 C   0  0  0  0  0  0  0  0  0  0  0  0
   -2.5939   -2.1564    0.0000 C   0  0  0  0  0  0  0  0  0  0  0  0
   -3.5851   -4.0319    0.0000 C   0  0  0  0  0  0  0  0  0  0  0  0
   -4.0273   -2.5985    0.0000 C   0  0  0  0  0  0  0  0  0  0  0  0
   -3.1430   -5.4653    0.0000 C   0  0  0  0  0  0  0  0  0  0  0  0
   -5.0185   -4.4740    0.0000 C   0  0  0  0  0  0  0  0  0  0  0  0
   -1.5574   -0.7500    0.0000 C   0  0  0  0  0  0  0  0  0  0  0  0
    0.6418    2.7905    0.0000 C   0  0  0  0  0  0  0  0  0  0  0  0
   -0.7916    3.2327    0.0000 C   0  0  0  0  0  0  0  0  0  0  0  0
   -1.9873    4.1384    0.0000 C   0  0  0  0  0  0  0  0  0  0  0  0
   -0.1073    4.5675    0.0000 O   0  0  0  0  0  0  0  0  0  0  0  0
  1  2  2  0
  2  3  1  0
  3  4  1  0
  4  5  1  1
  6  4  1  6
  6  7  1  0
  7  8  1  0
  8  9  1  0
  9 10  1  1
 10 11  1  0
 11 12  1  6
 12 13  1  0
 13 14  1  0
 13 15  1  0
 13 16  1  0
 16 17  1  0
 16 18  1  0
 16 19  1  0
 11 20  1  0
 20 21  1  6
 21 22  1  0
 22 23  1  0
 22 24  1  0
 22 25  1  0
 25 26  1  0
 25 27  1  0
 25 28  1  0
 20 29  1  0
  9 30  1  0
 30 31  1  0
 31 32  1  1
 31 33  1  0
  7  2  1  0
 31  6  1  0
  7 29  1  1
M  END
$$$$
17
     RDKit          2D

 33 35  0  0  0  0  0  0  0  0999 V2000
   -2.9795   -1.5133    0.0000 C   0  0  0  0  0  0  0  0  0  0  0  0
   -2.8451   -0.0193    0.0000 C   0  0  0  0  0  0  0  0  0  0  0  0
   -3.9747    0.9676    0.0000 C   0  0  0  0  0  0  0  0  0  0  0  0
   -3.3851    2.3469    0.0000 C   0  0  0  0  0  0  0  0  0  0  0  0
   -4.1545    3.6345    0.0000 O   0  0  0  0  0  0  0  0  0  0  0  0
   -1.8912    2.2124    0.0000 C   0  0  0  0  0  0  0  0  0  0  0  0
   -1.5574    0.7500    0.0000 C   0  0  0  0  0  0  0  0  0  0  0  0
   -0.3846    1.6852    0.0000 C   0  0  0  0  0  0  0  0  0  0  0  0
    1.0777    1.3515    0.0000 C   0  0  0  0  0  0  0  0  0  0  0  0
    1.7286    0.0000    0.0000 C   0  0  0  0  0  0  0  0  0  0  0  0
    1.0777   -1.3515    0.0000 C   0  0  0  0  0  0  0  0  0  0  0  0
    2.0130   -2.5242    0.0000 O   0  0  0  0  0  0  0  0  0  0  0  0
    1.4650   -3.9205    0.0000 Si  0  0  0  0  0  4  0  0  0  0  0  0
    2.8613   -4.4685    0.0000 C   0  0  0  0  0  0  0  0  0  0  0  0
    0.0687   -3.3725    0.0000 C   0  0  0  0  0  0  0  0  0  0  0  0
    0.9170   -5.3168    0.0000 C   0  0  0  0  0  0  0  0  0  0  0  0
    2.3133   -5.8648    0.0000 C   0  0  0  0  0  0  0  0  0  0  0  0
   -0.4794   -4.7688    0.0000 C   0  0  0  0  0  0  0  0  0  0  0  0
    0.3689   -6.7131    0.0000 C   0  0  0  0  0  0  0  0  0  0  0  0
   -0.3846   -1.6852    0.0000 C   0  0  0  0  0  0  0  0  0  0  0  0
   -0.7184   -3.1476    0.0000 O   0  0  0  0  0  0  0  0  0  0  0  0
   -2.1518   -3.5898    0.0000 Si  0  0  0  0  0  4  0  0  0  0  0  0
   -1.7097   -5.0231    0.0000 C   0  0  0  0  0  0  0  0  0  0  0  0
   -2.5939   -2.1564    0.0000 C   0  0  0  0  0  0  0  0  0  0  0  0
   -3.5851   -4.0319    0.0000 C   0  0  0  0  0  0  0  0  0  0  0  0
   -4.0273   -2.5985    0.0000 C   0  0  0  0  0  0  0  0  0  0  0  0
   -3.1430   -5.4653    0.0000 C   0  0  0  0  0  0  0  0  0  0  0  0
   -5.0185   -4.4740    0.0000 C   0  0  0  0  0  0  0  0  0  0  0  0
   -1.5574   -0.7500    0.0000 C   0  0  0  0  0  0  0  0  0  0  0  0
    0.6418    2.7905    0.0000 C   0  0  0  0  0  0  0  0  0  0  0  0
   -0.7916    3.2327    0.0000 C   0  0  0  0  0  0  0  0  0  0  0  0
   -1.9873    4.1384    0.0000 C   0  0  0  0  0  0  0  0  0  0  0  0
   -0.1073    4.5675    0.0000 O   0  0  0  0  0  0  0  0  0  0  0  0
  2  1  1  1
  2  3  1  0
  3  4  1  0
  4  5  1  1
  6  4  1  6
  6  7  1  0
  7  8  1  0
  8  9  1  0
  9 10  1  1
 10 11  1  0
 11 12  1  6
 12 13  1  0
 13 14  1  0
 13 15  1  0
 13 16  1  0
 16 17  1  0
 16 18  1  0
 16 19  1  0
 11 20  1  0
 20 21  1  6
 21 22  1  0
 22 23  1  0
 22 24  1  0
 22 25  1  0
 25 26  1  0
 25 27  1  0
 25 28  1  0
 20 29  1  0
  9 30  1  0
 30 31  1  0
 31 32  1  1
 31 33  1  0
  7  2  1  0
 31  6  1  0
  7 29  1  1
M  END
$$$$
18
     RDKit          2D

 19 21  0  0  0  0  0  0  0  0999 V2000
   -2.9795   -1.5133    0.0000 C   0  0  0  0  0  0  0  0  0  0  0  0
   -2.8451   -0.0193    0.0000 C   0  0  0  0  0  0  0  0  0  0  0  0
   -3.9747    0.9676    0.0000 C   0  0  0  0  0  0  0  0  0  0  0  0
   -3.3851    2.3469    0.0000 C   0  0  0  0  0  0  0  0  0  0  0  0
   -4.1545    3.6345    0.0000 O   0  0  0  0  0  0  0  0  0  0  0  0
   -1.8912    2.2124    0.0000 C   0  0  0  0  0  0  0  0  0  0  0  0
   -1.5574    0.7500    0.0000 C   0  0  0  0  0  0  0  0  0  0  0  0
   -0.3846    1.6852    0.0000 C   0  0  0  0  0  0  0  0  0  0  0  0
    1.0777    1.3515    0.0000 C   0  0  0  0  0  0  0  0  0  0  0  0
    1.7286    0.0000    0.0000 C   0  0  0  0  0  0  0  0  0  0  0  0
    1.0777   -1.3515    0.0000 C   0  0  0  0  0  0  0  0  0  0  0  0
    2.0130   -2.5242    0.0000 O   0  0  0  0  0  0  0  0  0  0  0  0
   -0.3846   -1.6852    0.0000 C   0  0  0  0  0  0  0  0  0  0  0  0
   -0.7184   -3.1476    0.0000 O   0  0  0  0  0  0  0  0  0  0  0  0
   -1.5574   -0.7500    0.0000 C   0  0  0  0  0  0  0  0  0  0  0  0
    0.6418    2.7905    0.0000 C   0  0  0  0  0  0  0  0  0  0  0  0
   -0.7916    3.2327    0.0000 C   0  0  0  0  0  0  0  0  0  0  0  0
   -1.9873    4.1384    0.0000 C   0  0  0  0  0  0  0  0  0  0  0  0
   -0.1073    4.5675    0.0000 O   0  0  0  0  0  0  0  0  0  0  0  0
  2  1  1  1
  2  3  1  0
  3  4  1  0
  4  5  1  1
  6  4  1  6
  6  7  1  0
  7  8  1  0
  8  9  1  0
  9 10  1  1
 10 11  1  0
 11 12  1  6
 11 13  1  0
 13 14  1  6
 13 15  1  0
  9 16  1  0
 16 17  1  0
 17 18  1  1
 17 19  1  0
  7  2  1  0
 17  6  1  0
  7 15  1  1
M  END
$$$$
19
     RDKit          2D

 18 20  0  0  0  0  0  0  0  0999 V2000
    3.3319   -0.6072    0.0000 C   0  0  0  0  0  0  0  0  0  0  0  0
    2.2172   -1.6109    0.0000 C   0  0  0  0  0  0  0  0  0  0  0  0
    2.3740   -3.1027    0.0000 C   0  0  0  0  0  0  0  0  0  0  0  0
    1.0037   -3.7128    0.0000 C   0  0  0  0  0  0  0  0  0  0  0  0
    0.6918   -5.1800    0.0000 O   0  0  0  0  0  0  0  0  0  0  0  0
   -0.0000   -2.5981    0.0000 C   0  0  0  0  0  0  0  0  0  0  0  0
    0.7500   -1.2990    0.0000 C   0  0  0  0  0  0  0  0  0  0  0  0
    1.5000    0.0000    0.0000 C   0  0  0  0  0  0  0  0  0  0  0  0
    0.7500    1.2990    0.0000 C   0  0  0  0  0  0  0  0  0  0  0  0
   -0.7500    1.2990    0.0000 C   0  0  0  0  0  0  0  0  0  0  0  0
   -1.5000    2.5981    0.0000 C   0  0  0  0  0  0  0  0  0  0  0  0
   -0.7500    3.8971    0.0000 O   0  0  0  0  0  0  0  0  0  0  0  0
   -1.5000    0.0000    0.0000 C   0  0  0  0  0  0  0  0  0  0  0  0
   -0.7500   -1.2990    0.0000 C   0  0  0  0  0  0  0  0  0  0  0  0
   -2.2500   -1.2990    0.0000 C   0  0  0  0  0  0  0  0  0  0  0  0
   -1.5000   -2.5981    0.0000 C   0  0  0  0  0  0  0  0  0  0  0  0
   -2.9095   -3.1111    0.0000 C   0  0  0  0  0  0  0  0  0  0  0  0
   -1.2395   -4.0753    0.0000 O   0  0  0  0  0  0  0  0  0  0  0  0
  2  1  1  1
  2  3  1  0
  3  4  1  0
  4  5  1  1
  6  4  1  6
  6  7  1  0
  7  8  1  1
  8  9  1  0
  9 10  2  0
 10 11  1  0
 11 12  2  0
 10 13  1  0
 13 14  1  0
 13 15  1  1
 15 16  1  0
 16 17  1  1
 16 18  1  0
  7  2  1  0
 16  6  1  0
 14  7  1  0
M  END
$$$$
1
     RDKit          2D

 18 20  0  0  0  0  0  0  0  0999 V2000
    3.3319   -0.6072    0.0000 C   0  0  0  0  0  0  0  0  0  0  0  0
    2.2172   -1.6109    0.0000 C   0  0  0  0  0  0  0  0  0  0  0  0
    2.3740   -3.1027    0.0000 C   0  0  0  0  0  0  0  0  0  0  0  0
    1.0037   -3.7128    0.0000 C   0  0  0  0  0  0  0  0  0  0  0  0
    0.6918   -5.1800    0.0000 O   0  0  0  0  0  0  0  0  0  0  0  0
   -0.0000   -2.5981    0.0000 C   0  0  0  0  0  0  0  0  0  0  0  0
    0.7500   -1.2990    0.0000 C   0  0  0  0  0  0  0  0  0  0  0  0
    1.5000    0.0000    0.0000 C   0  0  0  0  0  0  0  0  0  0  0  0
    0.7500    1.2990    0.0000 C   0  0  0  0  0  0  0  0  0  0  0  0
   -0.7500    1.2990    0.0000 C   0  0  0  0  0  0  0  0  0  0  0  0
   -1.5000    2.5981    0.0000 C   0  0  0  0  0  0  0  0  0  0  0  0
   -0.7500    3.8971    0.0000 O   0  0  0  0  0  0  0  0  0  0  0  0
   -1.5000    0.0000    0.0000 C   0  0  0  0  0  0  0  0  0  0  0  0
   -0.7500   -1.2990    0.0000 C   0  0  0  0  0  0  0  0  0  0  0  0
   -2.2500   -1.2990    0.0000 C   0  0  0  0  0  0  0  0  0  0  0  0
   -1.5000   -2.5981    0.0000 C   0  0  0  0  0  0  0  0  0  0  0  0
   -2.9095   -3.1111    0.0000 C   0  0  0  0  0  0  0  0  0  0  0  0
   -1.2395   -4.0753    0.0000 O   0  0  0  0  0  0  0  0  0  0  0  0
  2  1  1  1
  2  3  1  0
  3  4  1  0
  4  5  1  1
  6  4  1  6
  6  7  1  0
  7  8  1  1
  8  9  1  0
  9 10  2  0
 10 11  1  0
 11 12  1  0
 10 13  1  0
 13 14  1  0
 13 15  1  1
 15 16  1  0
 16 17  1  1
 16 18  1  0
  7  2  1  0
 16  6  1  0
 14  7  1  0
M  END
$$$$
20
     RDKit          2D

 21 24  0  0  0  0  0  0  0  0999 V2000
    3.3319   -0.6072    0.0000 C   0  0  0  0  0  0  0  0  0  0  0  0
    2.2172   -1.6109    0.0000 C   0  0  0  0  0  0  0  0  0  0  0  0
    2.3740   -3.1027    0.0000 C   0  0  0  0  0  0  0  0  0  0  0  0
    1.0037   -3.7128    0.0000 C   0  0  0  0  0  0  0  0  0  0  0  0
    0.6918   -5.1800    0.0000 O   0  0  0  0  0  0  0  0  0  0  0  0
   -0.0000   -2.5981    0.0000 C   0  0  0  0  0  0  0  0  0  0  0  0
    0.7500   -1.2990    0.0000 C   0  0  0  0  0  0  0  0  0  0  0  0
    1.5000    0.0000    0.0000 C   0  0  0  0  0  0  0  0  0  0  0  0
    0.7500    1.2990    0.0000 C   0  0  0  0  0  0  0  0  0  0  0  0
   -0.7500    1.2990    0.0000 C   0  0  0  0  0  0  0  0  0  0  0  0
   -1.5000    2.5981    0.0000 C   0  0  0  0  0  0  0  0  0  0  0  0
   -2.9918    2.7549    0.0000 S   0  0  0  0  0  0  0  0  0  0  0  0
   -3.3037    4.2221    0.0000 C   0  0  0  0  0  0  0  0  0  0  0  0
   -2.0046    4.9721    0.0000 C   0  0  0  0  0  0  0  0  0  0  0  0
   -0.8899    3.9684    0.0000 S   0  0  0  0  0  0  0  0  0  0  0  0
   -1.5000    0.0000    0.0000 C   0  0  0  0  0  0  0  0  0  0  0  0
   -0.7500   -1.2990    0.0000 C   0  0  0  0  0  0  0  0  0  0  0  0
   -2.2500   -1.2990    0.0000 C   0  0  0  0  0  0  0  0  0  0  0  0
   -1.5000   -2.5981    0.0000 C   0  0  0  0  0  0  0  0  0  0  0  0
   -2.9095   -3.1111    0.0000 C   0  0  0  0  0  0  0  0  0  0  0  0
   -1.2395   -4.0753    0.0000 O   0  0  0  0  0  0  0  0  0  0  0  0
  2  1  1  1
  2  3  1  0
  3  4  1  0
  4  5  1  1
  6  4  1  6
  6  7  1  0
  7  8  1  1
  8  9  1  0
  9 10  2  0
 10 11  1  0
 11 12  1  0
 12 13  1  0
 13 14  1  0
 14 15  1  0
 10 16  1  0
 16 17  1  0
 16 18  1  1
 18 19  1  0
 19 20  1  1
 19 21  1  0
  7  2  1  0
 15 11  1  0
 19  6  1  0
 17  7  1  0
M  END
$$$$
2
     RDKit          2D

 17 19  0  0  0  0  0  0  0  0999 V2000
    3.0000    0.0000    0.0000 C   0  0  0  0  0  0  0  0  0  0  0  0
    1.5000    0.0000    0.0000 C   0  0  0  0  0  0  0  0  0  0  0  0
    0.7500   -1.2990    0.0000 C   0  0  0  0  0  0  0  0  0  0  0  0
   -0.7500   -1.2990    0.0000 C   0  0  0  0  0  0  0  0  0  0  0  0
   -1.5000    0.0000    0.0000 C   0  0  0  0  0  0  0  0  0  0  0  0
   -0.7500    1.2990    0.0000 C   0  0  0  0  0  0  0  0  0  0  0  0
    0.7500    1.2990    0.0000 C   0  0  0  0  0  0  0  0  0  0  0  0
    0.0000    2.5981    0.0000 C   0  0  0  0  0  0  0  0  0  0  0  0
   -1.5000    2.5981    0.0000 C   0  0  0  0  0  0  0  0  0  0  0  0
   -2.9095    3.1111    0.0000 C   0  0  0  0  0  0  0  0  0  0  0  0
   -1.2395    4.0753    0.0000 O   0  0  0  0  0  0  0  0  0  0  0  0
   -2.2500    1.2990    0.0000 C   0  0  0  0  0  0  0  0  0  0  0  0
   -3.7172    0.9872    0.0000 C   0  0  0  0  0  0  0  0  0  0  0  0
   -4.8319    1.9909    0.0000 O   0  0  0  0  0  0  0  0  0  0  0  0
   -3.8740   -0.5046    0.0000 C   0  0  0  0  0  0  0  0  0  0  0  0
   -2.5037   -1.1147    0.0000 C   0  0  0  0  0  0  0  0  0  0  0  0
   -2.1918   -2.5819    0.0000 C   0  0  0  0  0  0  0  0  0  0  0  0
  1  2  1  0
  2  3  2  0
  3  4  1  0
  5  4  1  1
  5  6  1  0
  6  7  1  0
  7  8  1  1
  8  9  1  0
  9 10  1  1
  9 11  1  0
  9 12  1  0
 12 13  1  6
 13 14  1  1
 13 15  1  0
 15 16  1  0
 16 17  1  1
  7  2  1  0
 12  5  1  0
 16  5  1  0
M  END
$$$$
3
     RDKit          2D

 20 22  0  0  0  0  0  0  0  0999 V2000
    1.4947   -7.6509    0.0000 C   0  0  0  0  0  0  0  0  0  0  0  0
    1.8065   -6.1837    0.0000 C   0  0  0  0  0  0  0  0  0  0  0  0
    3.2331   -5.7202    0.0000 O   0  0  0  0  0  0  0  0  0  0  0  0
    0.6918   -5.1800    0.0000 O   0  0  0  0  0  0  0  0  0  0  0  0
    1.0037   -3.7128    0.0000 C   0  0  0  0  0  0  0  0  0  0  0  0
    2.3740   -3.1027    0.0000 C   0  0  0  0  0  0  0  0  0  0  0  0
    2.2172   -1.6109    0.0000 C   0  0  0  0  0  0  0  0  0  0  0  0
    3.3319   -0.6072    0.0000 C   0  0  0  0  0  0  0  0  0  0  0  0
    0.7500   -1.2990    0.0000 C   0  0  0  0  0  0  0  0  0  0  0  0
    1.5000    0.0000    0.0000 C   0  0  0  0  0  0  0  0  0  0  0  0
    0.7500    1.2990    0.0000 C   0  0  0  0  0  0  0  0  0  0  0  0
   -0.7500    1.2990    0.0000 C   0  0  0  0  0  0  0  0  0  0  0  0
   -1.5000    2.5981    0.0000 C   0  0  0  0  0  0  0  0  0  0  0  0
   -1.5000    0.0000    0.0000 C   0  0  0  0  0  0  0  0  0  0  0  0
   -0.7500   -1.2990    0.0000 C   0  0  0  0  0  0  0  0  0  0  0  0
   -2.2500   -1.2990    0.0000 C   0  0  0  0  0  0  0  0  0  0  0  0
   -1.5000   -2.5981    0.0000 C   0  0  0  0  0  0  0  0  0  0  0  0
   -2.9095   -3.1111    0.0000 C   0  0  0  0  0  0  0  0  0  0  0  0
   -1.2395   -4.0753    0.0000 O   0  0  0  0  0  0  0  0  0  0  0  0
   -0.0000   -2.5981    0.0000 C   0  0  0  0  0  0  0  0  0  0  0  0
  1  2  1  0
  2  3  2  0
  2  4  1  0
  5  4  1  1
  5  6  1  0
  6  7  1  0
  7  8  1  1
  7  9  1  0
  9 10  1  1
 10 11  1  0
 11 12  2  0
 12 13  1  0
 12 14  1  0
 14 15  1  0
 14 16  1  1
 16 17  1  0
 17 18  1  1
 17 19  1  0
 17 20  1  0
 20  5  1  6
 15  9  1  0
 20  9  1  0
M  END
$$$$
bis-trimethylsilyl-ethanedithiol
     RDKit          2D

 12 11  0  0  0  0  0  0  0  0999 V2000
    0.0000    0.0000    0.0000 C   0  0  0  0  0  0  0  0  0  0  0  0
    1.2990    0.7500    0.0000 Si  0  0  0  0  0  4  0  0  0  0  0  0
    2.5981    1.5000    0.0000 C   0  0  0  0  0  0  0  0  0  0  0  0
    2.0490   -0.5490    0.0000 C   0  0  0  0  0  0  0  0  0  0  0  0
    0.5490    2.0490    0.0000 S   0  0  0  0  0  0  0  0  0  0  0  0
    1.2990    3.3481    0.0000 C   0  0  0  0  0  0  0  0  0  0  0  0
    0.5490    4.6471    0.0000 C   0  0  0  0  0  0  0  0  0  0  0  0
    1.2990    5.9462    0.0000 S   0  0  0  0  0  0  0  0  0  0  0  0
    0.5490    7.2452    0.0000 Si  0  0  0  0  0  4  0  0  0  0  0  0
    1.8481    7.9952    0.0000 C   0  0  0  0  0  0  0  0  0  0  0  0
   -0.7500    6.4952    0.0000 C   0  0  0  0  0  0  0  0  0  0  0  0
   -0.2010    8.5442    0.0000 C   0  0  0  0  0  0  0  0  0  0  0  0
  1  2  1  0
  2  3  1  0
  2  4  1  0
  2  5  1  0
  5  6  1  0
  6  7  1  0
  7  8  1  0
  8  9  1  0
  9 10  1  0
  9 11  1  0
  9 12  1  0
M  END
$$$$
MeLi
     RDKit          2D

  2  0  0  0  0  0  0  0  0  0999 V2000
    1.0000    0.0000    0.0000 C   0  0  0  0  0  0  0  0  0  0  0  0
    0.0000    0.0000    0.0000 Li  0  0  0  0  0 15  0  0  0  0  0  0
M  CHG  2   1  -1   2   1
M  END
$$$$
Ac2O
     RDKit          2D

  7  6  0  0  0  0  0  0  0  0999 V2000
    0.0000    0.0000    0.0000 C   0  0  0  0  0  0  0  0  0  0  0  0
    1.2990    0.7500    0.0000 C   0  0  0  0  0  0  0  0  0  0  0  0
    2.5981   -0.0000    0.0000 O   0  0  0  0  0  0  0  0  0  0  0  0
    1.2990    2.2500    0.0000 O   0  0  0  0  0  0  0  0  0  0  0  0
    2.5981    3.0000    0.0000 C   0  0  0  0  0  0  0  0  0  0  0  0
    2.5981    4.5000    0.0000 C   0  0  0  0  0  0  0  0  0  0  0  0
    3.8971    2.2500    0.0000 O   0  0  0  0  0  0  0  0  0  0  0  0
  1  2  1  0
  2  3  2  0
  2  4  1  0
  4  5  1  0
  5  6  1  0
  5  7  2  0
M  END
$$$$
