1
     RDKit          2D

 12 11  0  0  0  0  0  0  0  0999 V2000
    0.0000    0.0000    0.0000 C   0  0  0  0  0  0  0  0  0  0  0  0
    1.2990    0.7500    0.0000 C   0  0  0  0  0  0  0  0  0  0  0  0
    2.5981    1.5000    0.0000 C   0  0  0  0  0  0  0  0  0  0  0  0
    2.0490   -0.5490    0.0000 C   0  0  0  0  0  0  0  0  0  0  0  0
    0.5490    2.0490    0.0000 Si  0  0  0  0  0  4  0  0  0  0  0  0
   -0.7500    1.2990    0.0000 C   0  0  0  0  0  0  0  0  0  0  0  0
    1.8481    2.7990    0.0000 C   0  0  0  0  0  0  0  0  0  0  0  0
   -0.2010    3.3481    0.0000 O   0  0  0  0  0  0  0  0  0  0  0  0
   -1.7010    3.3481    0.0000 C   0  0  0  0  0  0  0  0  0  0  0  0
   -2.4510    4.6471    0.0000 C   0  0  0  0  0  0  0  0  0  0  0  0
   -3.9510    4.6471    0.0000 C   0  0  0  0  0  0  0  0  0  0  0  0
   -4.7010    5.9462    0.0000 O   0  0  0  0  0  0  0  0  0  0  0  0
  1  2  1  0
  2  3  1  0
  2  4  1  0
  2  5  1  0
  5  6  1  0
  5  7  1  0
  5  8  1  0
  8  9  1  0
  9 10  1  0
 10 11  1  0
 11 12  1  0
M  END
$$$$
2
     RDKit          2D

 15 14  0  0  0  0  0  0  0  0999 V2000
    0.0000    0.0000    0.0000 C   0  0  0  0  0  0  0  0  0  0  0  0
    1.2990    0.7500    0.0000 C   0  0  0  0  0  0  0  0  0  0  0  0
    2.5981   -0.0000    0.0000 C   0  0  0  0  0  0  0  0  0  0  0  0
    3.8971    0.7500    0.0000 C   0  0  0  0  0  0  0  0  0  0  0  0
    3.8971    2.2500    0.0000 O   0  0  0  0  0  0  0  0  0  0  0  0
    5.1962   -0.0000    0.0000 C   0  0  0  0  0  0  0  0  0  0  0  0
    6.4952    0.7500    0.0000 C   0  0  0  0  0  0  0  0  0  0  0  0
    7.7942   -0.0000    0.0000 O   0  0  0  0  0  0  0  0  0  0  0  0
    9.0933    0.7500    0.0000 Si  0  0  0  0  0  4  0  0  0  0  0  0
    9.8433   -0.5490    0.0000 C   0  0  0  0  0  0  0  0  0  0  0  0
    8.3433    2.0490    0.0000 C   0  0  0  0  0  0  0  0  0  0  0  0
   10.3923    1.5000    0.0000 C   0  0  0  0  0  0  0  0  0  0  0  0
    9.6423    2.7990    0.0000 C   0  0  0  0  0  0  0  0  0  0  0  0
   11.1423    0.2010    0.0000 C   0  0  0  0  0  0  0  0  0  0  0  0
   11.6913    2.2500    0.0000 C   0  0  0  0  0  0  0  0  0  0  0  0
  1  2  2  0
  2  3  1  0
  3  4  1  0
  4  5  1  6
  4  6  1  0
  6  7  1  0
  7  8  1  0
  8  9  1  0
  9 10  1  0
  9 11  1  0
  9 12  1  0
 12 13  1  0
 12 14  1  0
 12 15  1  0
M  END
$$$$
A
     RDKit          2D

 18 17  0  0  0  0  0  0  0  0999 V2000
    0.0000    0.0000    0.0000 C   0  0  0  0  0  0  0  0  0  0  0  0
    1.2990    0.7500    0.0000 O   0  0  0  0  0  0  0  0  0  0  0  0
    2.5981   -0.0000    0.0000 C   0  0  0  0  0  0  0  0  0  0  0  0
    3.8971    0.7500    0.0000 C   0  0  0  0  0  0  0  0  0  0  0  0
    5.1962   -0.0000    0.0000 C   0  0  0  0  0  0  0  0  0  0  0  0
    6.4952    0.7500    0.0000 C   0  0  0  0  0  0  0  0  0  0  0  0
    7.7942   -0.0000    0.0000 C   0  0  0  0  0  0  0  0  0  0  0  0
    9.0933    0.7500    0.0000 O   0  0  0  0  0  0  0  0  0  0  0  0
    2.5981   -1.5000    0.0000 C   0  0  0  0  0  0  0  0  0  0  0  0
    3.8971   -2.2500    0.0000 C   0  0  0  0  0  0  0  0  0  0  0  0
    3.8971   -3.7500    0.0000 O   0  0  0  0  0  0  0  0  0  0  0  0
    5.1962   -4.5000    0.0000 Si  0  0  0  0  0  4  0  0  0  0  0  0
    4.4462   -5.7990    0.0000 C   0  0  0  0  0  0  0  0  0  0  0  0
    5.9462   -3.2010    0.0000 C   0  0  0  0  0  0  0  0  0  0  0  0
    6.4952   -5.2500    0.0000 C   0  0  0  0  0  0  0  0  0  0  0  0
    7.2452   -3.9510    0.0000 C   0  0  0  0  0  0  0  0  0  0  0  0
    5.7452   -6.5490    0.0000 C   0  0  0  0  0  0  0  0  0  0  0  0
    7.7942   -6.0000    0.0000 C   0  0  0  0  0  0  0  0  0  0  0  0
  1  2  1  0
  2  3  1  0
  3  4  1  1
  4  5  1  0
  5  6  1  0
  6  7  1  0
  7  8  2  0
  3  9  1  0
  9 10  1  0
 10 11  1  0
 11 12  1  0
 12 13  1  0
 12 14  1  0
 12 15  1  0
 15 16  1  0
 15 17  1  0
 15 18  1  0
M  END
$$$$
3
     RDKit          2D

 11 10  0  0  0  0  0  0  0  0999 V2000
   -5.2500   -3.8971    0.0000 C   0  0  0  0  0  0  0  0  0  0  0  0
   -4.5000   -2.5981    0.0000 C   0  0  0  0  0  0  0  0  0  0  0  0
   -5.2500   -1.2990    0.0000 C   0  0  0  0  0  0  0  0  0  0  0  0
   -3.0000   -2.5981    0.0000 C   0  0  0  0  0  0  0  0  0  0  0  0
   -2.2500   -1.2990    0.0000 C   0  0  0  0  0  0  0  0  0  0  0  0
   -0.7500   -1.2990    0.0000 C   0  0  0  0  0  0  0  0  0  0  0  0
    0.0000    0.0000    0.0000 C   0  0  0  0  0  0  0  0  0  0  0  0
   -0.7500    1.2990    0.0000 C   0  0  0  0  0  0  0  0  0  0  0  0
    1.5000    0.0000    0.0000 C   0  0  0  0  0  0  0  0  0  0  0  0
    2.2500    1.2990    0.0000 C   0  0  0  0  0  0  0  0  0  0  0  0
    3.7500    1.2990    0.0000 O   0  0  0  0  0  0  0  0  0  0  0  0
  1  2  1  0
  2  3  1  0
  2  4  2  0
  4  5  1  0
  5  6  1  0
  6  7  1  0
  7  8  1  0
  7  9  2  0
  9 10  1  0
 10 11  1  0
M  END
$$$$
4
     RDKit          2D

 15 14  0  0  0  0  0  0  0  0999 V2000
   -4.5000    0.0000    0.0000 C   0  0  0  0  0  0  0  0  0  0  0  0
   -3.0000    0.0000    0.0000 C   0  0  0  0  0  0  0  0  0  0  0  0
   -2.2500   -1.2990    0.0000 C   0  0  0  0  0  0  0  0  0  0  0  0
   -3.0000   -2.5981    0.0000 C   0  0  0  0  0  0  0  0  0  0  0  0
   -0.7500   -1.2990    0.0000 C   0  0  0  0  0  0  0  0  0  0  0  0
    0.0000   -2.5981    0.0000 O   0  0  0  0  0  0  0  0  0  0  0  0
    0.0000    0.0000    0.0000 C   0  0  0  0  0  0  0  0  0  0  0  0
    1.5000    0.0000    0.0000 C   0  0  0  0  0  0  0  0  0  0  0  0
    2.2500   -1.2990    0.0000 C   0  0  0  0  0  0  0  0  0  0  0  0
    2.2500    1.2990    0.0000 C   0  0  0  0  0  0  0  0  0  0  0  0
    3.7500    1.2990    0.0000 C   0  0  0  0  0  0  0  0  0  0  0  0
    4.5000    2.5981    0.0000 C   0  0  0  0  0  0  0  0  0  0  0  0
    6.0000    2.5981    0.0000 C   0  0  0  0  0  0  0  0  0  0  0  0
    6.7500    3.8971    0.0000 C   0  0  0  0  0  0  0  0  0  0  0  0
    6.7500    1.2990    0.0000 C   0  0  0  0  0  0  0  0  0  0  0  0
  1  2  2  0
  2  3  1  0
  3  4  1  1
  3  5  1  0
  5  6  1  1
  5  7  1  0
  7  8  2  0
  8  9  1  0
  8 10  1  0
 10 11  1  0
 11 12  1  0
 12 13  2  0
 13 14  1  0
 13 15  1  0
M  END
$$$$
B
     RDKit          2D

 23 22  0  0  0  0  0  0  0  0999 V2000
   -4.5000    0.0000    0.0000 C   0  0  0  0  0  0  0  0  0  0  0  0
   -3.0000    0.0000    0.0000 C   0  0  0  0  0  0  0  0  0  0  0  0
   -2.2500    1.2990    0.0000 O   0  0  0  0  0  0  0  0  0  0  0  0
   -2.2500   -1.2990    0.0000 C   0  0  0  0  0  0  0  0  0  0  0  0
   -3.0000   -2.5981    0.0000 C   0  0  0  0  0  0  0  0  0  0  0  0
   -0.7500   -1.2990    0.0000 C   0  0  0  0  0  0  0  0  0  0  0  0
    0.0000    0.0000    0.0000 C   0  0  0  0  0  0  0  0  0  0  0  0
    1.5000    0.0000    0.0000 C   0  0  0  0  0  0  0  0  0  0  0  0
    2.2500   -1.2990    0.0000 C   0  0  0  0  0  0  0  0  0  0  0  0
    2.2500    1.2990    0.0000 C   0  0  0  0  0  0  0  0  0  0  0  0
    3.7500    1.2990    0.0000 C   0  0  0  0  0  0  0  0  0  0  0  0
    4.5000    2.5981    0.0000 C   0  0  0  0  0  0  0  0  0  0  0  0
    6.0000    2.5981    0.0000 C   0  0  0  0  0  0  0  0  0  0  0  0
    6.7500    3.8971    0.0000 C   0  0  0  0  0  0  0  0  0  0  0  0
    6.7500    1.2990    0.0000 C   0  0  0  0  0  0  0  0  0  0  0  0
    0.0000   -2.5981    0.0000 O   0  0  0  0  0  0  0  0  0  0  0  0
   -0.7500   -3.8971    0.0000 Si  0  0  0  0  0  4  0  0  0  0  0  0
    0.5490   -4.6471    0.0000 C   0  0  0  0  0  0  0  0  0  0  0  0
   -2.0490   -3.1471    0.0000 C   0  0  0  0  0  0  0  0  0  0  0  0
   -1.5000   -5.1962    0.0000 C   0  0  0  0  0  0  0  0  0  0  0  0
   -2.7990   -4.4462    0.0000 C   0  0  0  0  0  0  0  0  0  0  0  0
   -0.2010   -5.9462    0.0000 C   0  0  0  0  0  0  0  0  0  0  0  0
   -2.2500   -6.4952    0.0000 C   0  0  0  0  0  0  0  0  0  0  0  0
  1  2  1  0
  2  3  2  0
  2  4  1  0
  4  5  1  1
  4  6  1  0
  6  7  1  0
  7  8  2  0
  8  9  1  0
  8 10  1  0
 10 11  1  0
 11 12  1  0
 12 13  2  0
 13 14  1  0
 13 15  1  0
  6 16  1  1
 16 17  1  0
 17 18  1  0
 17 19  1  0
 17 20  1  0
 20 21  1  0
 20 22  1  0
 20 23  1  0
M  END
$$$$
5
     RDKit          2D

 11 10  0  0  0  0  0  0  0  0999 V2000
    0.0000    0.0000    0.0000 C   0  0  0  0  0  0  0  0  0  0  0  0
    1.2990    0.7500    0.0000 C   0  0  0  0  0  0  0  0  0  0  0  0
    2.5981   -0.0000    0.0000 C   0  0  0  0  0  0  0  0  0  0  0  0
    1.2990    2.2500    0.0000 C   0  0  0  0  0  0  0  0  0  0  0  0
    2.5981    3.0000    0.0000 C   0  0  0  0  0  0  0  0  0  0  0  0
    2.5981    4.5000    0.0000 C   0  0  0  0  0  0  0  0  0  0  0  0
    3.8971    5.2500    0.0000 C   0  0  0  0  0  0  0  0  0  0  0  0
    3.8971    6.7500    0.0000 C   0  0  0  0  0  0  0  0  0  0  0  0
    5.1962    4.5000    0.0000 C   0  0  0  0  0  0  0  0  0  0  0  0
    6.4952    5.2500    0.0000 C   0  0  0  0  0  0  0  0  0  0  0  0
    7.7942    4.5000    0.0000 O   0  0  0  0  0  0  0  0  0  0  0  0
  1  2  1  0
  2  3  1  0
  2  4  2  0
  4  5  1  0
  5  6  1  0
  6  7  1  0
  7  8  1  6
  7  9  1  0
  9 10  1  0
 10 11  1  0
M  END
$$$$
6
     RDKit          2D

 11 10  0  0  0  0  0  0  0  0999 V2000
    0.0000    0.0000    0.0000 C   0  0  0  0  0  0  0  0  0  0  0  0
    1.2990    0.7500    0.0000 O   0  0  0  0  0  0  0  0  0  0  0  0
    2.5981   -0.0000    0.0000 C   0  0  0  0  0  0  0  0  0  0  0  0
    2.5981   -1.5000    0.0000 O   0  0  0  0  0  0  0  0  0  0  0  0
    3.8971    0.7500    0.0000 C   0  0  0  0  0  0  0  0  0  0  0  0
    5.1962   -0.0000    0.0000 C   0  0  0  0  0  0  0  0  0  0  0  0
    6.4952    0.7500    0.0000 C   0  0  0  0  0  0  0  0  0  0  0  0
    7.7942   -0.0000    0.0000 C   0  0  0  0  0  0  0  0  0  0  0  0
    6.4952    2.2500    0.0000 C   0  0  0  0  0  0  0  0  0  0  0  0
    7.7942    3.0000    0.0000 C   0  0  0  0  0  0  0  0  0  0  0  0
    7.7942    4.5000    0.0000 O   0  0  0  0  0  0  0  0  0  0  0  0
  1  2  1  0
  2  3  1  0
  3  4  2  0
  3  5  1  0
  5  6  1  0
  6  7  1  0
  7  8  1  1
  7  9  1  0
  9 10  1  0
 10 11  1  0
M  END
$$$$
7
     RDKit          2D

 14 13  0  0  0  0  0  0  0  0999 V2000
    0.0000    0.0000    0.0000 C   0  0  0  0  0  0  0  0  0  0  0  0
    1.2990    0.7500    0.0000 C   0  0  0  0  0  0  0  0  0  0  0  0
    2.5981   -0.0000    0.0000 C   0  0  0  0  0  0  0  0  0  0  0  0
    3.8971    0.7500    0.0000 C   0  0  0  0  0  0  0  0  0  0  0  0
    3.8971    2.2500    0.0000 O   0  0  0  0  0  0  0  0  0  0  0  0
    5.1962   -0.0000    0.0000 C   0  0  0  0  0  0  0  0  0  0  0  0
    6.4952    0.7500    0.0000 C   0  0  0  0  0  0  0  0  0  0  0  0
    7.7942   -0.0000    0.0000 C   0  0  0  0  0  0  0  0  0  0  0  0
    6.4952    2.2500    0.0000 C   0  0  0  0  0  0  0  0  0  0  0  0
    7.7942    3.0000    0.0000 C   0  0  0  0  0  0  0  0  0  0  0  0
    7.7942    4.5000    0.0000 C   0  0  0  0  0  0  0  0  0  0  0  0
    6.4952    5.2500    0.0000 O   0  0  0  0  0  0  0  0  0  0  0  0
    9.0933    5.2500    0.0000 O   0  0  0  0  0  0  0  0  0  0  0  0
    9.0933    6.7500    0.0000 C   0  0  0  0  0  0  0  0  0  0  0  0
  1  2  2  0
  2  3  1  0
  3  4  1  0
  4  5  1  6
  4  6  1  0
  6  7  1  0
  7  8  1  6
  7  9  1  0
  9 10  1  0
 10 11  1  0
 11 12  2  0
 11 13  1  0
 13 14  1  0
M  END
$$$$
C
     RDKit          2D

 22 21  0  0  0  0  0  0  0  0999 V2000
   -9.7500    1.2990    0.0000 C   0  0  0  0  0  0  0  0  0  0  0  0
   -9.0000    0.0000    0.0000 O   0  0  0  0  0  0  0  0  0  0  0  0
   -7.5000    0.0000    0.0000 C   0  0  0  0  0  0  0  0  0  0  0  0
   -6.7500    1.2990    0.0000 O   0  0  0  0  0  0  0  0  0  0  0  0
   -6.7500   -1.2990    0.0000 C   0  0  0  0  0  0  0  0  0  0  0  0
   -5.2500   -1.2990    0.0000 C   0  0  0  0  0  0  0  0  0  0  0  0
   -4.5000   -2.5981    0.0000 C   0  0  0  0  0  0  0  0  0  0  0  0
   -5.2500   -3.8971    0.0000 C   0  0  0  0  0  0  0  0  0  0  0  0
   -3.0000   -2.5981    0.0000 C   0  0  0  0  0  0  0  0  0  0  0  0
   -2.2500   -1.2990    0.0000 C   0  0  0  0  0  0  0  0  0  0  0  0
   -0.7500   -1.2990    0.0000 C   0  0  0  0  0  0  0  0  0  0  0  0
    0.0000    0.0000    0.0000 C   0  0  0  0  0  0  0  0  0  0  0  0
    1.5000    0.0000    0.0000 C   0  0  0  0  0  0  0  0  0  0  0  0
    2.2500    1.2990    0.0000 I   0  0  0  0  0  0  0  0  0  0  0  0
   -3.0000    0.0000    0.0000 O   0  0  0  0  0  0  0  0  0  0  0  0
   -2.2500    1.2990    0.0000 Si  0  0  0  0  0  4  0  0  0  0  0  0
   -3.5490    2.0490    0.0000 C   0  0  0  0  0  0  0  0  0  0  0  0
   -0.9510    0.5490    0.0000 C   0  0  0  0  0  0  0  0  0  0  0  0
   -1.5000    2.5981    0.0000 C   0  0  0  0  0  0  0  0  0  0  0  0
   -2.7990    3.3481    0.0000 C   0  0  0  0  0  0  0  0  0  0  0  0
   -0.2010    1.8481    0.0000 C   0  0  0  0  0  0  0  0  0  0  0  0
   -0.7500    3.8971    0.0000 C   0  0  0  0  0  0  0  0  0  0  0  0
  1  2  1  0
  2  3  1  0
  3  4  2  0
  3  5  1  0
  5  6  1  0
  6  7  1  0
  7  8  1  1
  7  9  1  0
 10  9  1  1
 10 11  1  0
 11 12  1  0
 12 13  2  0
 13 14  1  0
 10 15  1  0
 15 16  1  0
 16 17  1  0
 16 18  1  0
 16 19  1  0
 19 20  1  0
 19 21  1  0
 19 22  1  0
M  END
$$$$
8
     RDKit          2D

  8  7  0  0  0  0  0  0  0  0999 V2000
    0.0000    0.0000    0.0000 C   0  0  0  0  0  0  0  0  0  0  0  0
    1.2990    0.7500    0.0000 C   0  0  0  0  0  0  0  0  0  0  0  0
    2.5981   -0.0000    0.0000 O   0  0  0  0  0  0  0  0  0  0  0  0
    3.8971    0.7500    0.0000 C   0  0  0  0  0  0  0  0  0  0  0  0
    3.8971    2.2500    0.0000 O   0  0  0  0  0  0  0  0  0  0  0  0
    5.1962   -0.0000    0.0000 C   0  0  0  0  0  0  0  0  0  0  0  0
    6.4952    0.7500    0.0000 C   0  0  0  0  0  0  0  0  0  0  0  0
    7.7942   -0.0000    0.0000 O   0  0  0  0  0  0  0  0  0  0  0  0
  1  2  1  0
  2  3  1  0
  3  4  1  0
  4  5  2  0
  4  6  1  0
  6  7  1  0
  7  8  1  0
M  END
$$$$
9
     RDKit          2D

 12 11  0  0  0  0  0  0  0  0999 V2000
    0.0000    0.0000    0.0000 C   0  0  0  0  0  0  0  0  0  0  0  0
    1.2990    0.7500    0.0000 C   0  0  0  0  0  0  0  0  0  0  0  0
    2.5981   -0.0000    0.0000 C   0  0  0  0  0  0  0  0  0  0  0  0
    3.8971    0.7500    0.0000 C   0  0  0  0  0  0  0  0  0  0  0  0
    2.5981   -1.5000    0.0000 C   0  0  0  0  0  0  0  0  0  0  0  0
    1.2990   -2.2500    0.0000 O   0  0  0  0  0  0  0  0  0  0  0  0
    3.8971   -2.2500    0.0000 C   0  0  0  0  0  0  0  0  0  0  0  0
    3.8971   -3.7500    0.0000 C   0  0  0  0  0  0  0  0  0  0  0  0
    2.5981   -4.5000    0.0000 O   0  0  0  0  0  0  0  0  0  0  0  0
    5.1962   -4.5000    0.0000 O   0  0  0  0  0  0  0  0  0  0  0  0
    5.1962   -6.0000    0.0000 C   0  0  0  0  0  0  0  0  0  0  0  0
    6.4952   -6.7500    0.0000 C   0  0  0  0  0  0  0  0  0  0  0  0
  1  2  2  0
  2  3  1  0
  3  4  1  6
  3  5  1  0
  5  6  1  1
  5  7  1  0
  7  8  1  0
  8  9  2  0
  8 10  1  0
 10 11  1  0
 11 12  1  0
M  END
$$$$
10
     RDKit          2D

 22 22  0  0  0  0  0  0  0  0999 V2000
   10.5000   -5.1962    0.0000 C   0  0  0  0  0  0  0  0  0  0  0  0
    9.7500   -3.8971    0.0000 C   0  0  0  0  0  0  0  0  0  0  0  0
    8.2500   -3.8971    0.0000 O   0  0  0  0  0  0  0  0  0  0  0  0
    7.5000   -2.5981    0.0000 C   0  0  0  0  0  0  0  0  0  0  0  0
    8.2500   -1.2990    0.0000 O   0  0  0  0  0  0  0  0  0  0  0  0
    6.0000   -2.5981    0.0000 C   0  0  0  0  0  0  0  0  0  0  0  0
    5.2500   -1.2990    0.0000 C   0  0  0  0  0  0  0  0  0  0  0  0
    3.7500   -1.2990    0.0000 O   0  0  0  0  0  0  0  0  0  0  0  0
    3.0000    0.0000    0.0000 C   0  0  0  0  0  0  0  0  0  0  0  0
    1.5000    0.0000    0.0000 C   0  0  0  0  0  0  0  0  0  0  0  0
    0.7500   -1.2990    0.0000 C   0  0  0  0  0  0  0  0  0  0  0  0
   -0.7500   -1.2990    0.0000 C   0  0  0  0  0  0  0  0  0  0  0  0
   -1.5000    0.0000    0.0000 C   0  0  0  0  0  0  0  0  0  0  0  0
   -3.0000    0.0000    0.0000 O   0  0  0  0  0  0  0  0  0  0  0  0
   -3.7500    1.2990    0.0000 C   0  0  0  0  0  0  0  0  0  0  0  0
   -0.7500    1.2990    0.0000 C   0  0  0  0  0  0  0  0  0  0  0  0
    0.7500    1.2990    0.0000 C   0  0  0  0  0  0  0  0  0  0  0  0
    6.0000    0.0000    0.0000 C   0  0  0  0  0  0  0  0  0  0  0  0
    7.5000   -0.0000    0.0000 C   0  0  0  0  0  0  0  0  0  0  0  0
    5.2500    1.2990    0.0000 C   0  0  0  0  0  0  0  0  0  0  0  0
    6.0000    2.5981    0.0000 C   0  0  0  0  0  0  0  0  0  0  0  0
    3.7500    1.2990    0.0000 O   0  0  0  0  0  0  0  0  0  0  0  0
  1  2  1  0
  2  3  1  0
  3  4  1  0
  4  5  2  0
  4  6  1  0
  7  6  1  1
  7  8  1  0
  8  9  1  0
  9 10  1  0
 10 11  1  0
 11 12  2  0
 12 13  1  0
 13 14  1  0
 14 15  1  0
 13 16  2  0
 16 17  1  0
  7 18  1  0
 18 19  1  6
 18 20  1  0
 20 21  1  0
 20 22  2  0
 17 10  2  0
M  END
$$$$
S-2-methyl-4-pentenal
     RDKit          2D

  7  6  0  0  0  0  0  0  0  0999 V2000
    0.0000    0.0000    0.0000 C   0  0  0  0  0  0  0  0  0  0  0  0
    1.2990    0.7500    0.0000 C   0  0  0  0  0  0  0  0  0  0  0  0
    2.5981   -0.0000    0.0000 C   0  0  0  0  0  0  0  0  0  0  0  0
    3.8971    0.7500    0.0000 C   0  0  0  0  0  0  0  0  0  0  0  0
    5.1962   -0.0000    0.0000 C   0  0  0  0  0  0  0  0  0  0  0  0
    3.8971    2.2500    0.0000 C   0  0  0  0  0  0  0  0  0  0  0  0
    5.1962    3.0000    0.0000 O   0  0  0  0  0  0  0  0  0  0  0  0
  1  2  2  0
  2  3  1  0
  3  4  1  0
  4  5  1  1
  4  6  1  0
  6  7  2  0
M  END
$$$$
11
     RDKit          2D

 29 29  0  0  0  0  0  0  0  0999 V2000
    9.7500    6.4952    0.0000 C   0  0  0  0  0  0  0  0  0  0  0  0
    8.2500    6.4952    0.0000 C   0  0  0  0  0  0  0  0  0  0  0  0
    7.5000    5.1962    0.0000 C   0  0  0  0  0  0  0  0  0  0  0  0
    6.0000    5.1962    0.0000 C   0  0  0  0  0  0  0  0  0  0  0  0
    5.2500    6.4952    0.0000 C   0  0  0  0  0  0  0  0  0  0  0  0
    5.2500    3.8971    0.0000 C   0  0  0  0  0  0  0  0  0  0  0  0
    3.7500    3.8971    0.0000 O   0  0  0  0  0  0  0  0  0  0  0  0
    6.0000    2.5981    0.0000 C   0  0  0  0  0  0  0  0  0  0  0  0
    5.2500    1.2990    0.0000 C   0  0  0  0  0  0  0  0  0  0  0  0
    3.7500    1.2990    0.0000 O   0  0  0  0  0  0  0  0  0  0  0  0
    6.0000    0.0000    0.0000 C   0  0  0  0  0  0  0  0  0  0  0  0
    7.5000   -0.0000    0.0000 C   0  0  0  0  0  0  0  0  0  0  0  0
    5.2500   -1.2990    0.0000 C   0  0  0  0  0  0  0  0  0  0  0  0
    6.0000   -2.5981    0.0000 C   0  0  0  0  0  0  0  0  0  0  0  0
    7.5000   -2.5981    0.0000 C   0  0  0  0  0  0  0  0  0  0  0  0
    8.2500   -1.2990    0.0000 O   0  0  0  0  0  0  0  0  0  0  0  0
    8.2500   -3.8971    0.0000 O   0  0  0  0  0  0  0  0  0  0  0  0
    9.7500   -3.8971    0.0000 C   0  0  0  0  0  0  0  0  0  0  0  0
   10.5000   -5.1962    0.0000 C   0  0  0  0  0  0  0  0  0  0  0  0
    3.7500   -1.2990    0.0000 O   0  0  0  0  0  0  0  0  0  0  0  0
    3.0000    0.0000    0.0000 C   0  0  0  0  0  0  0  0  0  0  0  0
    1.5000    0.0000    0.0000 C   0  0  0  0  0  0  0  0  0  0  0  0
    0.7500   -1.2990    0.0000 C   0  0  0  0  0  0  0  0  0  0  0  0
   -0.7500   -1.2990    0.0000 C   0  0  0  0  0  0  0  0  0  0  0  0
   -1.5000    0.0000    0.0000 C   0  0  0  0  0  0  0  0  0  0  0  0
   -3.0000    0.0000    0.0000 O   0  0  0  0  0  0  0  0  0  0  0  0
   -3.7500    1.2990    0.0000 C   0  0  0  0  0  0  0  0  0  0  0  0
   -0.7500    1.2990    0.0000 C   0  0  0  0  0  0  0  0  0  0  0  0
    0.7500    1.2990    0.0000 C   0  0  0  0  0  0  0  0  0  0  0  0
  1  2  2  0
  2  3  1  0
  3  4  1  0
  4  5  1  1
  4  6  1  0
  6  7  1  6
  6  8  1  0
  8  9  1  0
  9 10  2  0
  9 11  1  0
 11 12  1  6
 11 13  1  0
 13 14  1  1
 14 15  1  0
 15 16  2  0
 15 17  1  0
 17 18  1  0
 18 19  1  0
 13 20  1  0
 20 21  1  0
 21 22  1  0
 22 23  1  0
 23 24  2  0
 24 25  1  0
 25 26  1  0
 26 27  1  0
 25 28  2  0
 28 29  1  0
 29 22  2  0
M  END
$$$$
12
     RDKit          2D

 23 23  0  0  0  0  0  0  0  0999 V2000
    6.0000    2.5981    0.0000 C   0  0  0  0  0  0  0  0  0  0  0  0
    5.2500    1.2990    0.0000 C   0  0  0  0  0  0  0  0  0  0  0  0
    3.7500    1.2990    0.0000 C   0  0  0  0  0  0  0  0  0  0  0  0
    3.0000    0.0000    0.0000 C   0  0  0  0  0  0  0  0  0  0  0  0
    3.7500   -1.2990    0.0000 C   0  0  0  0  0  0  0  0  0  0  0  0
    1.5000    0.0000    0.0000 C   0  0  0  0  0  0  0  0  0  0  0  0
    0.7500   -1.2990    0.0000 C   0  0  0  0  0  0  0  0  0  0  0  0
   -0.7500   -1.2990    0.0000 C   0  0  0  0  0  0  0  0  0  0  0  0
   -1.5000   -2.5981    0.0000 C   0  0  0  0  0  0  0  0  0  0  0  0
   -3.0000   -2.5981    0.0000 C   0  0  0  0  0  0  0  0  0  0  0  0
   -0.7500   -3.8971    0.0000 C   0  0  0  0  0  0  0  0  0  0  0  0
    0.7500   -3.8971    0.0000 O   0  0  0  0  0  0  0  0  0  0  0  0
   -1.5000   -5.1962    0.0000 C   0  0  0  0  0  0  0  0  0  0  0  0
   -0.7500   -6.4952    0.0000 C   0  0  0  0  0  0  0  0  0  0  0  0
    0.7500   -6.4952    0.0000 O   0  0  0  0  0  0  0  0  0  0  0  0
   -1.5000   -7.7942    0.0000 O   0  0  0  0  0  0  0  0  0  0  0  0
   -0.7500   -9.0933    0.0000 C   0  0  0  0  0  0  0  0  0  0  0  0
   -1.5000  -10.3923    0.0000 C   0  0  0  0  0  0  0  0  0  0  0  0
   -1.5000    0.0000    0.0000 O   0  0  0  0  0  0  0  0  0  0  0  0
   -0.7500    1.2990    0.0000 C   0  0  0  0  0  0  0  0  0  0  0  0
   -2.1595    1.8121    0.0000 C   0  0  0  0  0  0  0  0  0  0  0  0
   -0.4895    2.7762    0.0000 C   0  0  0  0  0  0  0  0  0  0  0  0
    0.7500    1.2990    0.0000 O   0  0  0  0  0  0  0  0  0  0  0  0
  1  2  2  0
  2  3  1  0
  3  4  1  0
  4  5  1  6
  4  6  1  0
  6  7  1  6
  8  7  1  6
  8  9  1  0
  9 10  1  1
  9 11  1  0
 11 12  1  6
 11 13  1  0
 13 14  1  0
 14 15  2  0
 14 16  1  0
 16 17  1  0
 17 18  1  0
  8 19  1  0
 19 20  1  0
 20 21  1  0
 20 22  1  0
 20 23  1  0
 23  6  1  0
M  END
$$$$
D
     RDKit          2D

 37 38  0  0  0  0  0  0  0  0999 V2000
    3.7500   -1.2990    0.0000 C   0  0  0  0  0  0  0  0  0  0  0  0
    3.0000    0.0000    0.0000 C   0  0  0  0  0  0  0  0  0  0  0  0
    1.5000    0.0000    0.0000 C   0  0  0  0  0  0  0  0  0  0  0  0
    0.7500   -1.2990    0.0000 C   0  0  0  0  0  0  0  0  0  0  0  0
   -0.7500   -1.2990    0.0000 C   0  0  0  0  0  0  0  0  0  0  0  0
   -1.5000   -2.5981    0.0000 C   0  0  0  0  0  0  0  0  0  0  0  0
   -3.0000   -2.5981    0.0000 C   0  0  0  0  0  0  0  0  0  0  0  0
   -0.7500   -3.8971    0.0000 C   0  0  0  0  0  0  0  0  0  0  0  0
   -1.5000   -5.1962    0.0000 C   0  0  0  0  0  0  0  0  0  0  0  0
   -0.7500   -6.4952    0.0000 C   0  0  0  0  0  0  0  0  0  0  0  0
   -1.5000   -7.7942    0.0000 B   0  0  0  0  0  0  0  0  0  0  0  0
   -0.8899   -9.1645    0.0000 O   0  0  0  0  0  0  0  0  0  0  0  0
   -2.0046  -10.1682    0.0000 C   0  0  0  0  0  0  0  0  0  0  0  0
   -0.8899  -11.1719    0.0000 C   0  0  0  0  0  0  0  0  0  0  0  0
   -2.8863  -11.3818    0.0000 C   0  0  0  0  0  0  0  0  0  0  0  0
   -3.3037   -9.4182    0.0000 C   0  0  0  0  0  0  0  0  0  0  0  0
   -3.9138  -10.7886    0.0000 C   0  0  0  0  0  0  0  0  0  0  0  0
   -4.7302   -8.9547    0.0000 C   0  0  0  0  0  0  0  0  0  0  0  0
   -2.9918   -7.9510    0.0000 O   0  0  0  0  0  0  0  0  0  0  0  0
   -1.5000    0.0000    0.0000 O   0  0  0  0  0  0  0  0  0  0  0  0
   -0.7500    1.2990    0.0000 C   0  0  0  0  0  0  0  0  0  0  0  0
   -2.1595    1.8121    0.0000 C   0  0  0  0  0  0  0  0  0  0  0  0
   -0.4895    2.7762    0.0000 C   0  0  0  0  0  0  0  0  0  0  0  0
    0.7500    1.2990    0.0000 O   0  0  0  0  0  0  0  0  0  0  0  0
    3.7500    1.2990    0.0000 C   0  0  0  0  0  0  0  0  0  0  0  0
    5.2500    1.2990    0.0000 C   0  0  0  0  0  0  0  0  0  0  0  0
    6.0000    0.0000    0.0000 C   0  0  0  0  0  0  0  0  0  0  0  0
    5.2500   -1.2990    0.0000 O   0  0  0  0  0  0  0  0  0  0  0  0
    7.5000    0.0000    0.0000 O   0  0  0  0  0  0  0  0  0  0  0  0
    3.0000    2.5981    0.0000 O   0  0  0  0  0  0  0  0  0  0  0  0
    3.7500    3.8971    0.0000 Si  0  0  0  0  0  4  0  0  0  0  0  0
    5.0490    3.1471    0.0000 C   0  0  0  0  0  0  0  0  0  0  0  0
    2.4510    4.6471    0.0000 C   0  0  0  0  0  0  0  0  0  0  0  0
    4.5000    5.1962    0.0000 C   0  0  0  0  0  0  0  0  0  0  0  0
    5.7990    4.4462    0.0000 C   0  0  0  0  0  0  0  0  0  0  0  0
    3.2010    5.9462    0.0000 C   0  0  0  0  0  0  0  0  0  0  0  0
    5.2500    6.4952    0.0000 C   0  0  0  0  0  0  0  0  0  0  0  0
  2  1  1  1
  2  3  1  0
  3  4  1  1
  5  4  1  1
  5  6  1  0
  6  7  1  6
  6  8  1  0
  8  9  1  0
  9 10  2  0
 10 11  1  0
 11 12  1  0
 12 13  1  0
 13 14  1  0
 13 15  1  0
 13 16  1  0
 16 17  1  0
 16 18  1  0
 16 19  1  0
  5 20  1  0
 20 21  1  0
 21 22  1  0
 21 23  1  0
 21 24  1  0
  2 25  1  0
 25 26  1  6
 26 27  1  0
 27 28  2  0
 27 29  1  0
 25 30  1  0
 30 31  1  0
 31 32  1  0
 31 33  1  0
 31 34  1  0
 34 35  1  0
 34 36  1  0
 34 37  1  0
 24  3  1  0
 19 11  1  0
M  END
$$$$
AB
     RDKit          2D

 41 40  0  0  0  0  0  0  0  0999 V2000
   -9.7500    6.4952    0.0000 C   0  0  0  0  0  0  0  0  0  0  0  0
   -9.0000    5.1962    0.0000 O   0  0  0  0  0  0  0  0  0  0  0  0
   -9.7500    3.8971    0.0000 C   0  0  0  0  0  0  0  0  0  0  0  0
   -9.0000    2.5981    0.0000 C   0  0  0  0  0  0  0  0  0  0  0  0
   -7.5000    2.5981    0.0000 C   0  0  0  0  0  0  0  0  0  0  0  0
   -6.7500    1.2990    0.0000 C   0  0  0  0  0  0  0  0  0  0  0  0
   -5.2500    1.2990    0.0000 C   0  0  0  0  0  0  0  0  0  0  0  0
   -4.5000    2.5981    0.0000 O   0  0  0  0  0  0  0  0  0  0  0  0
   -4.5000    0.0000    0.0000 C   0  0  0  0  0  0  0  0  0  0  0  0
   -3.0000    0.0000    0.0000 C   0  0  0  0  0  0  0  0  0  0  0  0
   -2.2500    1.2990    0.0000 O   0  0  0  0  0  0  0  0  0  0  0  0
   -2.2500   -1.2990    0.0000 C   0  0  0  0  0  0  0  0  0  0  0  0
   -3.0000   -2.5981    0.0000 C   0  0  0  0  0  0  0  0  0  0  0  0
   -0.7500   -1.2990    0.0000 C   0  0  0  0  0  0  0  0  0  0  0  0
    0.0000    0.0000    0.0000 C   0  0  0  0  0  0  0  0  0  0  0  0
    1.5000    0.0000    0.0000 C   0  0  0  0  0  0  0  0  0  0  0  0
    2.2500   -1.2990    0.0000 C   0  0  0  0  0  0  0  0  0  0  0  0
    2.2500    1.2990    0.0000 C   0  0  0  0  0  0  0  0  0  0  0  0
    3.7500    1.2990    0.0000 C   0  0  0  0  0  0  0  0  0  0  0  0
    4.5000    2.5981    0.0000 C   0  0  0  0  0  0  0  0  0  0  0  0
    6.0000    2.5981    0.0000 C   0  0  0  0  0  0  0  0  0  0  0  0
    6.7500    3.8971    0.0000 C   0  0  0  0  0  0  0  0  0  0  0  0
    6.7500    1.2990    0.0000 C   0  0  0  0  0  0  0  0  0  0  0  0
    0.0000   -2.5981    0.0000 O   0  0  0  0  0  0  0  0  0  0  0  0
   -0.7500   -3.8971    0.0000 Si  0  0  0  0  0  4  0  0  0  0  0  0
    0.5490   -4.6471    0.0000 C   0  0  0  0  0  0  0  0  0  0  0  0
   -2.0490   -3.1471    0.0000 C   0  0  0  0  0  0  0  0  0  0  0  0
   -1.5000   -5.1962    0.0000 C   0  0  0  0  0  0  0  0  0  0  0  0
   -2.7990   -4.4462    0.0000 C   0  0  0  0  0  0  0  0  0  0  0  0
   -0.2010   -5.9462    0.0000 C   0  0  0  0  0  0  0  0  0  0  0  0
   -2.2500   -6.4952    0.0000 C   0  0  0  0  0  0  0  0  0  0  0  0
  -11.2500    3.8971    0.0000 C   0  0  0  0  0  0  0  0  0  0  0  0
  -12.0000    5.1962    0.0000 C   0  0  0  0  0  0  0  0  0  0  0  0
  -13.5000    5.1962    0.0000 O   0  0  0  0  0  0  0  0  0  0  0  0
  -14.2500    6.4952    0.0000 Si  0  0  0  0  0  4  0  0  0  0  0  0
  -15.5490    5.7452    0.0000 C   0  0  0  0  0  0  0  0  0  0  0  0
  -12.9510    7.2452    0.0000 C   0  0  0  0  0  0  0  0  0  0  0  0
  -15.0000    7.7942    0.0000 C   0  0  0  0  0  0  0  0  0  0  0  0
  -13.7010    8.5442    0.0000 C   0  0  0  0  0  0  0  0  0  0  0  0
  -16.2990    7.0442    0.0000 C   0  0  0  0  0  0  0  0  0  0  0  0
  -15.7500    9.0933    0.0000 C   0  0  0  0  0  0  0  0  0  0  0  0
  1  2  1  0
  2  3  1  0
  3  4  1  1
  4  5  1  0
  5  6  1  0
  6  7  1  0
  7  8  1  1
  7  9  1  0
  9 10  1  0
 10 11  1  6
 10 12  1  0
 12 13  1  1
 12 14  1  0
 14 15  1  0
 15 16  2  0
 16 17  1  0
 16 18  1  0
 18 19  1  0
 19 20  1  0
 20 21  2  0
 21 22  1  0
 21 23  1  0
 14 24  1  1
 24 25  1  0
 25 26  1  0
 25 27  1  0
 25 28  1  0
 28 29  1  0
 28 30  1  0
 28 31  1  0
  3 32  1  0
 32 33  1  0
 33 34  1  0
 34 35  1  0
 35 36  1  0
 35 37  1  0
 35 38  1  0
 38 39  1  0
 38 40  1  0
 38 41  1  0
M  END
$$$$
13
     RDKit          2D

 55 55  0  0  0  0  0  0  0  0999 V2000
    7.2760  -15.5885    0.0000 C   0  0  0  0  0  0  0  0  0  0  0  0
    8.0260  -14.2894    0.0000 O   0  0  0  0  0  0  0  0  0  0  0  0
    9.5260  -14.2894    0.0000 C   0  0  0  0  0  0  0  0  0  0  0  0
   10.2760  -12.9904    0.0000 C   0  0  0  0  0  0  0  0  0  0  0  0
    9.5260  -11.6913    0.0000 C   0  0  0  0  0  0  0  0  0  0  0  0
   10.2760  -10.3923    0.0000 C   0  0  0  0  0  0  0  0  0  0  0  0
    9.5260   -9.0933    0.0000 C   0  0  0  0  0  0  0  0  0  0  0  0
   10.2760   -7.7942    0.0000 C   0  0  0  0  0  0  0  0  0  0  0  0
    9.5260   -6.4952    0.0000 C   0  0  0  0  0  0  0  0  0  0  0  0
    8.0260   -6.4952    0.0000 O   0  0  0  0  0  0  0  0  0  0  0  0
   10.2760   -5.1962    0.0000 C   0  0  0  0  0  0  0  0  0  0  0  0
   11.7760   -5.1962    0.0000 C   0  0  0  0  0  0  0  0  0  0  0  0
    9.5260   -3.8971    0.0000 C   0  0  0  0  0  0  0  0  0  0  0  0
    8.0260   -3.8971    0.0000 C   0  0  0  0  0  0  0  0  0  0  0  0
    7.2760   -2.5981    0.0000 C   0  0  0  0  0  0  0  0  0  0  0  0
    8.0260   -1.2990    0.0000 C   0  0  0  0  0  0  0  0  0  0  0  0
    5.7760   -2.5981    0.0000 C   0  0  0  0  0  0  0  0  0  0  0  0
    5.0260   -1.2990    0.0000 C   0  0  0  0  0  0  0  0  0  0  0  0
    3.5260   -1.2990    0.0000 C   0  0  0  0  0  0  0  0  0  0  0  0
    2.7760    0.0000    0.0000 C   0  0  0  0  0  0  0  0  0  0  0  0
    1.2760    0.0000    0.0000 B   0  0  0  0  0  0  0  0  0  0  0  0
    0.3943    1.2135    0.0000 O   0  0  0  0  0  0  0  0  0  0  0  0
   -1.0323    0.7500    0.0000 C   0  0  0  0  0  0  0  0  0  0  0  0
   -2.5241    0.5932    0.0000 C   0  0  0  0  0  0  0  0  0  0  0  0
   -1.3442    2.2172    0.0000 C   0  0  0  0  0  0  0  0  0  0  0  0
   -1.0323   -0.7500    0.0000 C   0  0  0  0  0  0  0  0  0  0  0  0
   -1.3442   -2.2172    0.0000 C   0  0  0  0  0  0  0  0  0  0  0  0
   -2.5241   -0.5932    0.0000 C   0  0  0  0  0  0  0  0  0  0  0  0
    0.3943   -1.2135    0.0000 O   0  0  0  0  0  0  0  0  0  0  0  0
   10.2760   -2.5981    0.0000 O   0  0  0  0  0  0  0  0  0  0  0  0
   11.7760   -2.5981    0.0000 Si  0  0  0  0  0  4  0  0  0  0  0  0
   11.7760   -1.0981    0.0000 C   0  0  0  0  0  0  0  0  0  0  0  0
   11.7760   -4.0981    0.0000 C   0  0  0  0  0  0  0  0  0  0  0  0
   13.2760   -2.5981    0.0000 C   0  0  0  0  0  0  0  0  0  0  0  0
   13.2760   -4.0981    0.0000 C   0  0  0  0  0  0  0  0  0  0  0  0
   13.2760   -1.0981    0.0000 C   0  0  0  0  0  0  0  0  0  0  0  0
   14.7760   -2.5981    0.0000 C   0  0  0  0  0  0  0  0  0  0  0  0
    8.0260   -9.0933    0.0000 O   0  0  0  0  0  0  0  0  0  0  0  0
    7.2760  -10.3923    0.0000 Si  0  0  0  0  0  4  0  0  0  0  0  0
    5.9769   -9.6423    0.0000 C   0  0  0  0  0  0  0  0  0  0  0  0
    8.5750  -11.1423    0.0000 C   0  0  0  0  0  0  0  0  0  0  0  0
    6.5260  -11.6913    0.0000 C   0  0  0  0  0  0  0  0  0  0  0  0
    5.2269  -10.9413    0.0000 C   0  0  0  0  0  0  0  0  0  0  0  0
    7.8250  -12.4413    0.0000 C   0  0  0  0  0  0  0  0  0  0  0  0
    5.7760  -12.9904    0.0000 C   0  0  0  0  0  0  0  0  0  0  0  0
   10.2760  -15.5885    0.0000 C   0  0  0  0  0  0  0  0  0  0  0  0
    9.5260  -16.8875    0.0000 C   0  0  0  0  0  0  0  0  0  0  0  0
   10.2760  -18.1865    0.0000 O   0  0  0  0  0  0  0  0  0  0  0  0
    9.5260  -19.4856    0.0000 Si  0  0  0  0  0  4  0  0  0  0  0  0
   10.8250  -20.2356    0.0000 C   0  0  0  0  0  0  0  0  0  0  0  0
    8.2269  -18.7356    0.0000 C   0  0  0  0  0  0  0  0  0  0  0  0
    8.7760  -20.7846    0.0000 C   0  0  0  0  0  0  0  0  0  0  0  0
    7.4769  -20.0346    0.0000 C   0  0  0  0  0  0  0  0  0  0  0  0
   10.0750  -21.5346    0.0000 C   0  0  0  0  0  0  0  0  0  0  0  0
    8.0260  -22.0836    0.0000 C   0  0  0  0  0  0  0  0  0  0  0  0
  1  2  1  0
  2  3  1  0
  3  4  1  1
  4  5  1  0
  5  6  1  0
  7  6  1  1
  7  8  1  0
  8  9  1  0
  9 10  1  6
  9 11  1  0
 11 12  1  1
 11 13  1  0
 13 14  1  0
 14 15  2  0
 15 16  1  0
 15 17  1  0
 17 18  1  0
 18 19  1  0
 19 20  2  0
 20 21  1  0
 21 22  1  0
 22 23  1  0
 23 24  1  0
 23 25  1  0
 23 26  1  0
 26 27  1  0
 26 28  1  0
 26 29  1  0
 13 30  1  1
 30 31  1  0
 31 32  1  0
 31 33  1  0
 31 34  1  0
 34 35  1  0
 34 36  1  0
 34 37  1  0
  7 38  1  0
 38 39  1  0
 39 40  1  0
 39 41  1  0
 39 42  1  0
 42 43  1  0
 42 44  1  0
 42 45  1  0
  3 46  1  0
 46 47  1  0
 47 48  1  0
 48 49  1  0
 49 50  1  0
 49 51  1  0
 49 52  1  0
 52 53  1  0
 52 54  1  0
 52 55  1  0
 29 21  1  0
M  END
$$$$
ABC
     RDKit          2D

 61 60  0  0  0  0  0  0  0  0999 V2000
   -9.7500    1.2990    0.0000 C   0  0  0  0  0  0  0  0  0  0  0  0
   -9.0000    0.0000    0.0000 O   0  0  0  0  0  0  0  0  0  0  0  0
   -7.5000    0.0000    0.0000 C   0  0  0  0  0  0  0  0  0  0  0  0
   -6.7500    1.2990    0.0000 O   0  0  0  0  0  0  0  0  0  0  0  0
   -6.7500   -1.2990    0.0000 C   0  0  0  0  0  0  0  0  0  0  0  0
   -5.2500   -1.2990    0.0000 C   0  0  0  0  0  0  0  0  0  0  0  0
   -4.5000   -2.5981    0.0000 C   0  0  0  0  0  0  0  0  0  0  0  0
   -5.2500   -3.8971    0.0000 C   0  0  0  0  0  0  0  0  0  0  0  0
   -3.0000   -2.5981    0.0000 C   0  0  0  0  0  0  0  0  0  0  0  0
   -2.2500   -1.2990    0.0000 C   0  0  0  0  0  0  0  0  0  0  0  0
   -0.7500   -1.2990    0.0000 C   0  0  0  0  0  0  0  0  0  0  0  0
    0.0000    0.0000    0.0000 C   0  0  0  0  0  0  0  0  0  0  0  0
    1.5000    0.0000    0.0000 C   0  0  0  0  0  0  0  0  0  0  0  0
    2.2500    1.2990    0.0000 C   0  0  0  0  0  0  0  0  0  0  0  0
    3.7500    1.2990    0.0000 C   0  0  0  0  0  0  0  0  0  0  0  0
    4.5000    2.5981    0.0000 C   0  0  0  0  0  0  0  0  0  0  0  0
    6.0000    2.5981    0.0000 C   0  0  0  0  0  0  0  0  0  0  0  0
    6.7500    3.8971    0.0000 C   0  0  0  0  0  0  0  0  0  0  0  0
    6.0000    5.1962    0.0000 C   0  0  0  0  0  0  0  0  0  0  0  0
    8.2500    3.8971    0.0000 C   0  0  0  0  0  0  0  0  0  0  0  0
    9.0000    5.1962    0.0000 C   0  0  0  0  0  0  0  0  0  0  0  0
    8.2500    6.4952    0.0000 O   0  0  0  0  0  0  0  0  0  0  0  0
    9.0000    7.7942    0.0000 Si  0  0  0  0  0  4  0  0  0  0  0  0
    7.7010    8.5442    0.0000 C   0  0  0  0  0  0  0  0  0  0  0  0
   10.2990    7.0442    0.0000 C   0  0  0  0  0  0  0  0  0  0  0  0
    9.7500    9.0933    0.0000 C   0  0  0  0  0  0  0  0  0  0  0  0
   11.0490    8.3433    0.0000 C   0  0  0  0  0  0  0  0  0  0  0  0
    8.4510    9.8433    0.0000 C   0  0  0  0  0  0  0  0  0  0  0  0
   10.5000   10.3923    0.0000 C   0  0  0  0  0  0  0  0  0  0  0  0
   10.5000    5.1962    0.0000 C   0  0  0  0  0  0  0  0  0  0  0  0
   11.2500    6.4952    0.0000 C   0  0  0  0  0  0  0  0  0  0  0  0
   11.2500    3.8971    0.0000 C   0  0  0  0  0  0  0  0  0  0  0  0
   10.5000    2.5981    0.0000 O   0  0  0  0  0  0  0  0  0  0  0  0
   12.7500    3.8971    0.0000 C   0  0  0  0  0  0  0  0  0  0  0  0
   13.5000    2.5981    0.0000 C   0  0  0  0  0  0  0  0  0  0  0  0
   15.0000    2.5981    0.0000 C   0  0  0  0  0  0  0  0  0  0  0  0
   15.7500    1.2990    0.0000 C   0  0  0  0  0  0  0  0  0  0  0  0
   17.2500    1.2990    0.0000 C   0  0  0  0  0  0  0  0  0  0  0  0
   18.0000   -0.0000    0.0000 C   0  0  0  0  0  0  0  0  0  0  0  0
   19.5000   -0.0000    0.0000 C   0  0  0  0  0  0  0  0  0  0  0  0
   20.2500   -1.2990    0.0000 C   0  0  0  0  0  0  0  0  0  0  0  0
   21.7500   -1.2990    0.0000 C   0  0  0  0  0  0  0  0  0  0  0  0
   22.5000   -0.0000    0.0000 I   0  0  0  0  0  0  0  0  0  0  0  0
   17.2500   -1.2990    0.0000 O   0  0  0  0  0  0  0  0  0  0  0  0
   18.0000   -2.5981    0.0000 C   0  0  0  0  0  0  0  0  0  0  0  0
   12.7500    1.2990    0.0000 O   0  0  0  0  0  0  0  0  0  0  0  0
   13.5000   -0.0000    0.0000 Si  0  0  0  0  0  4  0  0  0  0  0  0
   12.2010   -0.7500    0.0000 C   0  0  0  0  0  0  0  0  0  0  0  0
   14.7990    0.7500    0.0000 C   0  0  0  0  0  0  0  0  0  0  0  0
   14.2500   -1.2990    0.0000 C   0  0  0  0  0  0  0  0  0  0  0  0
   12.9510   -2.0490    0.0000 C   0  0  0  0  0  0  0  0  0  0  0  0
   15.5490   -0.5490    0.0000 C   0  0  0  0  0  0  0  0  0  0  0  0
   15.0000   -2.5981    0.0000 C   0  0  0  0  0  0  0  0  0  0  0  0
   -3.0000    0.0000    0.0000 O   0  0  0  0  0  0  0  0  0  0  0  0
   -2.2500    1.2990    0.0000 Si  0  0  0  0  0  4  0  0  0  0  0  0
   -3.5490    2.0490    0.0000 C   0  0  0  0  0  0  0  0  0  0  0  0
   -0.9510    0.5490    0.0000 C   0  0  0  0  0  0  0  0  0  0  0  0
   -1.5000    2.5981    0.0000 C   0  0  0  0  0  0  0  0  0  0  0  0
   -2.7990    3.3481    0.0000 C   0  0  0  0  0  0  0  0  0  0  0  0
   -0.2010    1.8481    0.0000 C   0  0  0  0  0  0  0  0  0  0  0  0
   -0.7500    3.8971    0.0000 C   0  0  0  0  0  0  0  0  0  0  0  0
  1  2  1  0
  2  3  1  0
  3  4  2  0
  3  5  1  0
  5  6  1  0
  6  7  1  0
  7  8  1  1
  7  9  1  0
 10  9  1  1
 10 11  1  0
 11 12  1  0
 12 13  2  0
 13 14  1  0
 14 15  2  0
 15 16  1  0
 16 17  1  0
 17 18  1  0
 18 19  1  0
 18 20  2  0
 20 21  1  0
 21 22  1  1
 22 23  1  0
 23 24  1  0
 23 25  1  0
 23 26  1  0
 26 27  1  0
 26 28  1  0
 26 29  1  0
 21 30  1  0
 30 31  1  1
 30 32  1  0
 32 33  1  6
 32 34  1  0
 35 34  1  1
 35 36  1  0
 36 37  1  0
 37 38  1  0
 39 38  1  1
 39 40  1  0
 40 41  1  0
 41 42  2  0
 42 43  1  0
 39 44  1  0
 44 45  1  0
 35 46  1  0
 46 47  1  0
 47 48  1  0
 47 49  1  0
 47 50  1  0
 50 51  1  0
 50 52  1  0
 50 53  1  0
 10 54  1  0
 54 55  1  0
 55 56  1  0
 55 57  1  0
 55 58  1  0
 58 59  1  0
 58 60  1  0
 58 61  1  0
M  END
$$$$
ABCD
     RDKit          2D

 87 88  0  0  0  0  0  0  0  0999 V2000
   23.6802   13.9354    0.0000 C   0  0  0  0  0  0  0  0  0  0  0  0
   22.8101   15.1573    0.0000 O   0  0  0  0  0  0  0  0  0  0  0  0
   21.3169   15.0147    0.0000 C   0  0  0  0  0  0  0  0  0  0  0  0
   20.8647   13.5845    0.0000 O   0  0  0  0  0  0  0  0  0  0  0  0
   20.4468   16.2366    0.0000 C   0  0  0  0  0  0  0  0  0  0  0  0
   18.9536   16.0940    0.0000 C   0  0  0  0  0  0  0  0  0  0  0  0
   18.0835   17.3159    0.0000 C   0  0  0  0  0  0  0  0  0  0  0  0
   18.7066   18.6803    0.0000 C   0  0  0  0  0  0  0  0  0  0  0  0
   16.5903   17.1733    0.0000 C   0  0  0  0  0  0  0  0  0  0  0  0
   15.9672   15.8088    0.0000 C   0  0  0  0  0  0  0  0  0  0  0  0
   14.4740   15.6662    0.0000 C   0  0  0  0  0  0  0  0  0  0  0  0
   13.8508   14.3018    0.0000 C   0  0  0  0  0  0  0  0  0  0  0  0
   12.3576   14.1592    0.0000 C   0  0  0  0  0  0  0  0  0  0  0  0
   11.7345   12.7948    0.0000 C   0  0  0  0  0  0  0  0  0  0  0  0
   10.2413   12.6522    0.0000 C   0  0  0  0  0  0  0  0  0  0  0  0
    9.6182   11.2877    0.0000 C   0  0  0  0  0  0  0  0  0  0  0  0
    8.1250   11.1451    0.0000 C   0  0  0  0  0  0  0  0  0  0  0  0
    7.5018    9.7807    0.0000 C   0  0  0  0  0  0  0  0  0  0  0  0
    6.0086    9.6381    0.0000 C   0  0  0  0  0  0  0  0  0  0  0  0
    8.3719    8.5588    0.0000 C   0  0  0  0  0  0  0  0  0  0  0  0
    7.7488    7.1944    0.0000 C   0  0  0  0  0  0  0  0  0  0  0  0
    6.2556    7.0518    0.0000 O   0  0  0  0  0  0  0  0  0  0  0  0
    5.3855    8.2737    0.0000 Si  0  0  0  0  0  4  0  0  0  0  0  0
    4.1637    7.4036    0.0000 C   0  0  0  0  0  0  0  0  0  0  0  0
    6.6074    9.1437    0.0000 C   0  0  0  0  0  0  0  0  0  0  0  0
    4.5154    9.4955    0.0000 C   0  0  0  0  0  0  0  0  0  0  0  0
    5.7373   10.3656    0.0000 C   0  0  0  0  0  0  0  0  0  0  0  0
    3.2936    8.6254    0.0000 C   0  0  0  0  0  0  0  0  0  0  0  0
    3.6453   10.7174    0.0000 C   0  0  0  0  0  0  0  0  0  0  0  0
    8.6189    5.9725    0.0000 C   0  0  0  0  0  0  0  0  0  0  0  0
   10.1121    6.1151    0.0000 C   0  0  0  0  0  0  0  0  0  0  0  0
    7.9958    4.6081    0.0000 C   0  0  0  0  0  0  0  0  0  0  0  0
    9.2577    3.7971    0.0000 C   0  0  0  0  0  0  0  0  0  0  0  0
   10.2399    2.6635    0.0000 C   0  0  0  0  0  0  0  0  0  0  0  0
   11.5018    3.4744    0.0000 O   0  0  0  0  0  0  0  0  0  0  0  0
   12.8351    2.7871    0.0000 Si  0  0  0  0  0  4  0  0  0  0  0  0
   13.5224    4.1204    0.0000 C   0  0  0  0  0  0  0  0  0  0  0  0
   12.1477    1.4539    0.0000 C   0  0  0  0  0  0  0  0  0  0  0  0
   14.1683    2.0998    0.0000 C   0  0  0  0  0  0  0  0  0  0  0  0
   13.4810    0.7665    0.0000 C   0  0  0  0  0  0  0  0  0  0  0  0
   14.8557    3.4330    0.0000 C   0  0  0  0  0  0  0  0  0  0  0  0
   15.5016    1.4124    0.0000 C   0  0  0  0  0  0  0  0  0  0  0  0
   10.8631    1.2990    0.0000 C   0  0  0  0  0  0  0  0  0  0  0  0
   11.0765   -0.1857    0.0000 C   0  0  0  0  0  0  0  0  0  0  0  0
   10.8631   -1.6704    0.0000 C   0  0  0  0  0  0  0  0  0  0  0  0
   10.2399   -3.0349    0.0000 C   0  0  0  0  0  0  0  0  0  0  0  0
   11.5018   -3.8458    0.0000 O   0  0  0  0  0  0  0  0  0  0  0  0
   11.4305   -5.3441    0.0000 C   0  0  0  0  0  0  0  0  0  0  0  0
    9.2577   -4.1685    0.0000 C   0  0  0  0  0  0  0  0  0  0  0  0
    7.9958   -4.9795    0.0000 C   0  0  0  0  0  0  0  0  0  0  0  0
    6.5565   -5.4021    0.0000 C   0  0  0  0  0  0  0  0  0  0  0  0
    5.0565   -5.4021    0.0000 C   0  0  0  0  0  0  0  0  0  0  0  0
    3.7947   -4.5911    0.0000 C   0  0  0  0  0  0  0  0  0  0  0  0
    2.3554   -4.1685    0.0000 C   0  0  0  0  0  0  0  0  0  0  0  0
    1.3731   -3.0349    0.0000 C   0  0  0  0  0  0  0  0  0  0  0  0
    0.1112   -3.8458    0.0000 C   0  0  0  0  0  0  0  0  0  0  0  0
    0.7500   -1.2990    0.0000 C   0  0  0  0  0  0  0  0  0  0  0  0
    1.5000    0.0000    0.0000 C   0  0  0  0  0  0  0  0  0  0  0  0
    0.7500    1.2990    0.0000 C   0  0  0  0  0  0  0  0  0  0  0  0
   -0.7500    1.2990    0.0000 O   0  0  0  0  0  0  0  0  0  0  0  0
   -1.5000    0.0000    0.0000 C   0  0  0  0  0  0  0  0  0  0  0  0
   -2.6491   -0.9642    0.0000 C   0  0  0  0  0  0  0  0  0  0  0  0
   -2.6491    0.9642    0.0000 C   0  0  0  0  0  0  0  0  0  0  0  0
   -0.7500   -1.2990    0.0000 O   0  0  0  0  0  0  0  0  0  0  0  0
    1.3731    2.6635    0.0000 C   0  0  0  0  0  0  0  0  0  0  0  0
    0.4865    3.0907    0.0000 C   0  0  0  0  0  0  0  0  0  0  0  0
    2.3554    3.7971    0.0000 C   0  0  0  0  0  0  0  0  0  0  0  0
    1.3731    4.9307    0.0000 O   0  0  0  0  0  0  0  0  0  0  0  0
   -0.0998    4.6469    0.0000 Si  0  0  0  0  0  4  0  0  0  0  0  0
   -0.0327    3.6650    0.0000 C   0  0  0  0  0  0  0  0  0  0  0  0
   -0.3836    6.1198    0.0000 C   0  0  0  0  0  0  0  0  0  0  0  0
   -1.5727    4.3630    0.0000 C   0  0  0  0  0  0  0  0  0  0  0  0
   -1.2888    2.8901    0.0000 C   0  0  0  0  0  0  0  0  0  0  0  0
   -1.8565    5.8359    0.0000 C   0  0  0  0  0  0  0  0  0  0  0  0
   -3.0456    4.0791    0.0000 C   0  0  0  0  0  0  0  0  0  0  0  0
    3.6173    4.6081    0.0000 C   0  0  0  0  0  0  0  0  0  0  0  0
    5.0565    5.0307    0.0000 C   0  0  0  0  0  0  0  0  0  0  0  0
    4.8431    6.5154    0.0000 O   0  0  0  0  0  0  0  0  0  0  0  0
    6.5565    5.0307    0.0000 O   0  0  0  0  0  0  0  0  0  0  0  0
   16.8373   14.5870    0.0000 O   0  0  0  0  0  0  0  0  0  0  0  0
   18.3305   14.7295    0.0000 Si  0  0  0  0  0  4  0  0  0  0  0  0
   18.4730   13.2363    0.0000 C   0  0  0  0  0  0  0  0  0  0  0  0
   18.1879   16.2228    0.0000 C   0  0  0  0  0  0  0  0  0  0  0  0
   19.8237   14.8721    0.0000 C   0  0  0  0  0  0  0  0  0  0  0  0
   19.7832   13.3727    0.0000 C   0  0  0  0  0  0  0  0  0  0  0  0
   19.6811   16.3653    0.0000 C   0  0  0  0  0  0  0  0  0  0  0  0
   20.6120   14.7536    0.0000 C   0  0  0  0  0  0  0  0  0  0  0  0
  1  2  1  0
  2  3  1  0
  3  4  2  0
  3  5  1  0
  5  6  1  0
  6  7  1  0
  7  8  1  1
  7  9  1  0
 10  9  1  1
 10 11  1  0
 11 12  1  0
 12 13  2  0
 13 14  1  0
 14 15  2  0
 15 16  1  0
 16 17  1  0
 17 18  1  0
 18 19  1  0
 18 20  2  0
 20 21  1  0
 21 22  1  6
 22 23  1  0
 23 24  1  0
 23 25  1  0
 23 26  1  0
 26 27  1  0
 26 28  1  0
 26 29  1  0
 21 30  1  0
 30 31  1  1
 30 32  1  0
 32 33  1  6
 33 34  1  0
 34 35  1  6
 35 36  1  0
 36 37  1  0
 36 38  1  0
 36 39  1  0
 39 40  1  0
 39 41  1  0
 39 42  1  0
 34 43  1  0
 43 44  1  0
 44 45  1  0
 45 46  1  0
 46 47  1  6
 47 48  1  0
 46 49  1  0
 49 50  1  0
 50 51  2  0
 51 52  1  0
 52 53  2  0
 53 54  1  0
 54 55  1  0
 55 56  1  6
 55 57  1  0
 57 58  1  0
 58 59  1  0
 59 60  1  1
 60 61  1  0
 61 62  1  0
 61 63  1  0
 61 64  1  0
 59 65  1  0
 65 66  1  6
 65 67  1  0
 67 68  1  6
 68 69  1  0
 69 70  1  0
 69 71  1  0
 69 72  1  0
 72 73  1  0
 72 74  1  0
 72 75  1  0
 67 76  1  0
 76 77  1  0
 77 78  2  0
 77 79  1  0
 10 80  1  0
 80 81  1  0
 81 82  1  0
 81 83  1  0
 81 84  1  0
 84 85  1  0
 84 86  1  0
 84 87  1  0
 79 32  1  0
 57 64  1  1
M  END
$$$$
acetonide-22-ring
     RDKit          2D

 59 60  0  0  0  0  0  0  0  0999 V2000
   28.4068   11.7769    0.0000 C   0  0  0  0  0  0  0  0  0  0  0  0
   27.5367   12.9987    0.0000 O   0  0  0  0  0  0  0  0  0  0  0  0
   26.0435   12.8562    0.0000 C   0  0  0  0  0  0  0  0  0  0  0  0
   25.4203   11.4917    0.0000 O   0  0  0  0  0  0  0  0  0  0  0  0
   25.1734   14.0780    0.0000 C   0  0  0  0  0  0  0  0  0  0  0  0
   23.6802   13.9354    0.0000 C   0  0  0  0  0  0  0  0  0  0  0  0
   22.8101   15.1573    0.0000 C   0  0  0  0  0  0  0  0  0  0  0  0
   23.4332   16.5217    0.0000 C   0  0  0  0  0  0  0  0  0  0  0  0
   21.3169   15.0147    0.0000 C   0  0  0  0  0  0  0  0  0  0  0  0
   20.6938   13.6503    0.0000 C   0  0  0  0  0  0  0  0  0  0  0  0
   21.5638   12.4284    0.0000 O   0  0  0  0  0  0  0  0  0  0  0  0
   19.2005   13.5077    0.0000 C   0  0  0  0  0  0  0  0  0  0  0  0
   18.5774   12.1432    0.0000 C   0  0  0  0  0  0  0  0  0  0  0  0
   17.0842   12.0006    0.0000 C   0  0  0  0  0  0  0  0  0  0  0  0
   16.4611   10.6362    0.0000 C   0  0  0  0  0  0  0  0  0  0  0  0
   14.9679   10.4936    0.0000 C   0  0  0  0  0  0  0  0  0  0  0  0
   14.3448    9.1292    0.0000 C   0  0  0  0  0  0  0  0  0  0  0  0
   12.8516    8.9866    0.0000 C   0  0  0  0  0  0  0  0  0  0  0  0
   12.2284    7.6221    0.0000 C   0  0  0  0  0  0  0  0  0  0  0  0
   13.0985    6.4003    0.0000 C   0  0  0  0  0  0  0  0  0  0  0  0
   10.7352    7.4796    0.0000 C   0  0  0  0  0  0  0  0  0  0  0  0
   10.1121    6.1151    0.0000 C   0  0  0  0  0  0  0  0  0  0  0  0
   10.9822    4.8932    0.0000 O   0  0  0  0  0  0  0  0  0  0  0  0
    8.6189    5.9725    0.0000 C   0  0  0  0  0  0  0  0  0  0  0  0
    7.7488    7.1944    0.0000 C   0  0  0  0  0  0  0  0  0  0  0  0
    7.9958    4.6081    0.0000 C   0  0  0  0  0  0  0  0  0  0  0  0
    9.2577    3.7971    0.0000 C   0  0  0  0  0  0  0  0  0  0  0  0
   10.2399    2.6635    0.0000 C   0  0  0  0  0  0  0  0  0  0  0  0
   11.5018    3.4744    0.0000 O   0  0  0  0  0  0  0  0  0  0  0  0
   10.8631    1.2990    0.0000 C   0  0  0  0  0  0  0  0  0  0  0  0
   11.0765   -0.1857    0.0000 C   0  0  0  0  0  0  0  0  0  0  0  0
   10.8631   -1.6704    0.0000 C   0  0  0  0  0  0  0  0  0  0  0  0
   10.2399   -3.0349    0.0000 C   0  0  0  0  0  0  0  0  0  0  0  0
   11.5018   -3.8458    0.0000 O   0  0  0  0  0  0  0  0  0  0  0  0
   11.4305   -5.3441    0.0000 C   0  0  0  0  0  0  0  0  0  0  0  0
    9.2577   -4.1685    0.0000 C   0  0  0  0  0  0  0  0  0  0  0  0
    7.9958   -4.9795    0.0000 C   0  0  0  0  0  0  0  0  0  0  0  0
    6.5565   -5.4021    0.0000 C   0  0  0  0  0  0  0  0  0  0  0  0
    5.0565   -5.4021    0.0000 C   0  0  0  0  0  0  0  0  0  0  0  0
    3.7947   -4.5911    0.0000 C   0  0  0  0  0  0  0  0  0  0  0  0
    2.3554   -4.1685    0.0000 C   0  0  0  0  0  0  0  0  0  0  0  0
    1.3731   -3.0349    0.0000 C   0  0  0  0  0  0  0  0  0  0  0  0
    0.1112   -3.8458    0.0000 C   0  0  0  0  0  0  0  0  0  0  0  0
    0.7500   -1.2990    0.0000 C   0  0  0  0  0  0  0  0  0  0  0  0
    1.5000    0.0000    0.0000 C   0  0  0  0  0  0  0  0  0  0  0  0
    0.7500    1.2990    0.0000 C   0  0  0  0  0  0  0  0  0  0  0  0
   -0.7500    1.2990    0.0000 O   0  0  0  0  0  0  0  0  0  0  0  0
   -1.5000    0.0000    0.0000 C   0  0  0  0  0  0  0  0  0  0  0  0
   -2.6491   -0.9642    0.0000 C   0  0  0  0  0  0  0  0  0  0  0  0
   -2.6491    0.9642    0.0000 C   0  0  0  0  0  0  0  0  0  0  0  0
   -0.7500   -1.2990    0.0000 O   0  0  0  0  0  0  0  0  0  0  0  0
    1.3731    2.6635    0.0000 C   0  0  0  0  0  0  0  0  0  0  0  0
    0.1112    3.4744    0.0000 C   0  0  0  0  0  0  0  0  0  0  0  0
    2.3554    3.7971    0.0000 C   0  0  0  0  0  0  0  0  0  0  0  0
    1.3731    4.9307    0.0000 O   0  0  0  0  0  0  0  0  0  0  0  0
    3.6173    4.6081    0.0000 C   0  0  0  0  0  0  0  0  0  0  0  0
    5.0565    5.0307    0.0000 C   0  0  0  0  0  0  0  0  0  0  0  0
    4.8431    6.5154    0.0000 O   0  0  0  0  0  0  0  0  0  0  0  0
    6.5565    5.0307    0.0000 O   0  0  0  0  0  0  0  0  0  0  0  0
  1  2  1  0
  2  3  1  0
  3  4  2  0
  3  5  1  0
  5  6  1  0
  6  7  1  0
  7  8  1  1
  7  9  1  0
  9 10  1  0
 10 11  1  1
 10 12  1  0
 12 13  1  0
 13 14  2  0
 14 15  1  0
 15 16  2  0
 16 17  1  0
 17 18  1  0
 18 19  1  0
 19 20  1  0
 19 21  2  0
 21 22  1  0
 22 23  1  1
 22 24  1  0
 24 25  1  6
 24 26  1  0
 26 27  1  6
 27 28  1  0
 28 29  1  6
 28 30  1  0
 30 31  1  0
 31 32  1  0
 32 33  1  0
 33 34  1  6
 34 35  1  0
 33 36  1  0
 36 37  1  0
 37 38  2  0
 38 39  1  0
 39 40  2  0
 40 41  1  0
 41 42  1  0
 42 43  1  6
 42 44  1  0
 44 45  1  0
 45 46  1  0
 46 47  1  1
 47 48  1  0
 48 49  1  0
 48 50  1  0
 48 51  1  0
 46 52  1  0
 52 53  1  6
 52 54  1  0
 54 55  1  6
 54 56  1  0
 56 57  1  0
 57 58  2  0
 57 59  1  0
 59 26  1  0
 44 51  1  1
M  END
$$$$
acetonide-24-ring
     RDKit          2D

 59 60  0  0  0  0  0  0  0  0999 V2000
   -2.7152  -21.7522    0.0000 C   0  0  0  0  0  0  0  0  0  0  0  0
   -1.2663  -22.1405    0.0000 O   0  0  0  0  0  0  0  0  0  0  0  0
   -0.2057  -21.0798    0.0000 C   0  0  0  0  0  0  0  0  0  0  0  0
   -0.5939  -19.6309    0.0000 O   0  0  0  0  0  0  0  0  0  0  0  0
    1.2432  -21.4680    0.0000 C   0  0  0  0  0  0  0  0  0  0  0  0
    2.3039  -20.4074    0.0000 C   0  0  0  0  0  0  0  0  0  0  0  0
    3.7528  -20.7956    0.0000 C   0  0  0  0  0  0  0  0  0  0  0  0
    4.1410  -22.2445    0.0000 C   0  0  0  0  0  0  0  0  0  0  0  0
    4.8134  -19.7349    0.0000 C   0  0  0  0  0  0  0  0  0  0  0  0
    4.4252  -18.2861    0.0000 C   0  0  0  0  0  0  0  0  0  0  0  0
    2.9763  -17.8978    0.0000 O   0  0  0  0  0  0  0  0  0  0  0  0
    5.4859  -17.2254    0.0000 C   0  0  0  0  0  0  0  0  0  0  0  0
    5.0976  -15.7765    0.0000 C   0  0  0  0  0  0  0  0  0  0  0  0
    6.1583  -14.7158    0.0000 C   0  0  0  0  0  0  0  0  0  0  0  0
    5.7701  -13.2670    0.0000 C   0  0  0  0  0  0  0  0  0  0  0  0
    6.8307  -12.2063    0.0000 C   0  0  0  0  0  0  0  0  0  0  0  0
    6.4425  -10.7574    0.0000 C   0  0  0  0  0  0  0  0  0  0  0  0
    7.5031   -9.6968    0.0000 C   0  0  0  0  0  0  0  0  0  0  0  0
    7.1149   -8.2479    0.0000 C   0  0  0  0  0  0  0  0  0  0  0  0
    5.6660   -7.8596    0.0000 C   0  0  0  0  0  0  0  0  0  0  0  0
    8.1756   -7.1872    0.0000 C   0  0  0  0  0  0  0  0  0  0  0  0
    7.7874   -5.7383    0.0000 C   0  0  0  0  0  0  0  0  0  0  0  0
    6.3002   -5.9341    0.0000 O   0  0  0  0  0  0  0  0  0  0  0  0
    4.8130   -5.7383    0.0000 C   0  0  0  0  0  0  0  0  0  0  0  0
    4.4248   -7.1872    0.0000 O   0  0  0  0  0  0  0  0  0  0  0  0
    3.4272   -5.1643    0.0000 C   0  0  0  0  0  0  0  0  0  0  0  0
    2.2372   -4.2511    0.0000 C   0  0  0  0  0  0  0  0  0  0  0  0
    1.1765   -5.3118    0.0000 O   0  0  0  0  0  0  0  0  0  0  0  0
    1.3240   -3.0611    0.0000 C   0  0  0  0  0  0  0  0  0  0  0  0
    0.0250   -3.8111    0.0000 C   0  0  0  0  0  0  0  0  0  0  0  0
    0.7500   -1.2990    0.0000 C   0  0  0  0  0  0  0  0  0  0  0  0
    1.5000    0.0000    0.0000 C   0  0  0  0  0  0  0  0  0  0  0  0
    0.7500    1.2990    0.0000 C   0  0  0  0  0  0  0  0  0  0  0  0
   -0.7500    1.2990    0.0000 O   0  0  0  0  0  0  0  0  0  0  0  0
   -1.5000    0.0000    0.0000 C   0  0  0  0  0  0  0  0  0  0  0  0
   -2.6491   -0.9642    0.0000 C   0  0  0  0  0  0  0  0  0  0  0  0
   -2.6491    0.9642    0.0000 C   0  0  0  0  0  0  0  0  0  0  0  0
   -0.7500   -1.2990    0.0000 O   0  0  0  0  0  0  0  0  0  0  0  0
    1.3240    2.6849    0.0000 C   0  0  0  0  0  0  0  0  0  0  0  0
    0.0250    3.4349    0.0000 C   0  0  0  0  0  0  0  0  0  0  0  0
    2.2372    3.8749    0.0000 C   0  0  0  0  0  0  0  0  0  0  0  0
    3.4272    4.7880    0.0000 C   0  0  0  0  0  0  0  0  0  0  0  0
    4.9144    4.9838    0.0000 C   0  0  0  0  0  0  0  0  0  0  0  0
    6.3002    5.5578    0.0000 C   0  0  0  0  0  0  0  0  0  0  0  0
    7.7874    5.3621    0.0000 C   0  0  0  0  0  0  0  0  0  0  0  0
    9.1732    4.7880    0.0000 C   0  0  0  0  0  0  0  0  0  0  0  0
   10.3632    3.8749    0.0000 C   0  0  0  0  0  0  0  0  0  0  0  0
   11.4239    4.9355    0.0000 O   0  0  0  0  0  0  0  0  0  0  0  0
   12.8727    4.5473    0.0000 C   0  0  0  0  0  0  0  0  0  0  0  0
   11.2763    2.6849    0.0000 C   0  0  0  0  0  0  0  0  0  0  0  0
   11.8504    1.2990    0.0000 C   0  0  0  0  0  0  0  0  0  0  0  0
   12.0462   -0.1881    0.0000 C   0  0  0  0  0  0  0  0  0  0  0  0
   11.8504   -1.6753    0.0000 C   0  0  0  0  0  0  0  0  0  0  0  0
   13.2993   -2.0635    0.0000 O   0  0  0  0  0  0  0  0  0  0  0  0
   11.2763   -3.0611    0.0000 C   0  0  0  0  0  0  0  0  0  0  0  0
   10.3632   -4.2511    0.0000 C   0  0  0  0  0  0  0  0  0  0  0  0
   11.4239   -5.3118    0.0000 O   0  0  0  0  0  0  0  0  0  0  0  0
    9.1732   -5.1643    0.0000 C   0  0  0  0  0  0  0  0  0  0  0  0
    9.9232   -6.4633    0.0000 C   0  0  0  0  0  0  0  0  0  0  0  0
  1  2  1  0
  2  3  1  0
  3  4  2  0
  3  5  1  0
  5  6  1  0
  6  7  1  0
  7  8  1  1
  7  9  1  0
  9 10  1  0
 10 11  1  1
 10 12  1  0
 12 13  1  0
 13 14  2  0
 14 15  1  0
 15 16  2  0
 16 17  1  0
 17 18  1  0
 18 19  1  0
 19 20  1  0
 19 21  2  0
 22 21  1  1
 22 23  1  0
 23 24  1  0
 24 25  2  0
 24 26  1  0
 26 27  1  0
 27 28  1  1
 27 29  1  0
 29 30  1  1
 29 31  1  0
 31 32  1  0
 32 33  1  0
 33 34  1  6
 34 35  1  0
 35 36  1  0
 35 37  1  0
 35 38  1  0
 33 39  1  0
 39 40  1  1
 39 41  1  0
 41 42  1  0
 42 43  2  0
 43 44  1  0
 44 45  2  0
 45 46  1  0
 46 47  1  0
 47 48  1  1
 48 49  1  0
 47 50  1  0
 50 51  1  0
 51 52  1  0
 52 53  1  0
 53 54  1  1
 53 55  1  0
 55 56  1  0
 56 57  1  6
 56 58  1  0
 58 59  1  6
 58 22  1  0
 31 38  1  6
M  END
$$$$
iso-gladiolin-Me
     RDKit          2D

 56 56  0  0  0  0  0  0  0  0999 V2000
   18.4960  -14.2894    0.0000 C   0  0  0  0  0  0  0  0  0  0  0  0
   19.2460  -12.9904    0.0000 O   0  0  0  0  0  0  0  0  0  0  0  0
   18.4960  -11.6913    0.0000 C   0  0  0  0  0  0  0  0  0  0  0  0
   16.9960  -11.6913    0.0000 O   0  0  0  0  0  0  0  0  0  0  0  0
   19.2460  -10.3923    0.0000 C   0  0  0  0  0  0  0  0  0  0  0  0
   18.4960   -9.0933    0.0000 C   0  0  0  0  0  0  0  0  0  0  0  0
   19.2460   -7.7942    0.0000 C   0  0  0  0  0  0  0  0  0  0  0  0
   20.7460   -7.7942    0.0000 C   0  0  0  0  0  0  0  0  0  0  0  0
   18.4960   -6.4952    0.0000 C   0  0  0  0  0  0  0  0  0  0  0  0
   16.9960   -6.4952    0.0000 C   0  0  0  0  0  0  0  0  0  0  0  0
   16.2460   -7.7942    0.0000 O   0  0  0  0  0  0  0  0  0  0  0  0
   16.2460   -5.1962    0.0000 C   0  0  0  0  0  0  0  0  0  0  0  0
   14.7460   -5.1962    0.0000 C   0  0  0  0  0  0  0  0  0  0  0  0
   13.9960   -3.8971    0.0000 C   0  0  0  0  0  0  0  0  0  0  0  0
   12.4960   -3.8971    0.0000 C   0  0  0  0  0  0  0  0  0  0  0  0
   11.7460   -2.5981    0.0000 C   0  0  0  0  0  0  0  0  0  0  0  0
   10.2460   -2.5981    0.0000 C   0  0  0  0  0  0  0  0  0  0  0  0
    9.4960   -1.2990    0.0000 C   0  0  0  0  0  0  0  0  0  0  0  0
    7.9960   -1.2990    0.0000 C   0  0  0  0  0  0  0  0  0  0  0  0
    7.2460   -2.5981    0.0000 C   0  0  0  0  0  0  0  0  0  0  0  0
    7.2460    0.0000    0.0000 C   0  0  0  0  0  0  0  0  0  0  0  0
    5.7460    0.0000    0.0000 C   0  0  0  0  0  0  0  0  0  0  0  0
    5.5502   -1.4872    0.0000 O   0  0  0  0  0  0  0  0  0  0  0  0
    4.9762   -2.8730    0.0000 C   0  0  0  0  0  0  0  0  0  0  0  0
    6.2752   -3.6230    0.0000 O   0  0  0  0  0  0  0  0  0  0  0  0
    4.0630   -4.0630    0.0000 C   0  0  0  0  0  0  0  0  0  0  0  0
    2.8730   -4.9762    0.0000 C   0  0  0  0  0  0  0  0  0  0  0  0
    3.6230   -6.2752    0.0000 O   0  0  0  0  0  0  0  0  0  0  0  0
    1.4872   -5.5502    0.0000 C   0  0  0  0  0  0  0  0  0  0  0  0
    1.8754   -6.9991    0.0000 C   0  0  0  0  0  0  0  0  0  0  0  0
   -0.0000   -5.7460    0.0000 C   0  0  0  0  0  0  0  0  0  0  0  0
   -0.0000   -7.2460    0.0000 O   0  0  0  0  0  0  0  0  0  0  0  0
   -1.4872   -5.5502    0.0000 C   0  0  0  0  0  0  0  0  0  0  0  0
   -2.8730   -4.9762    0.0000 C   0  0  0  0  0  0  0  0  0  0  0  0
   -3.6230   -6.2752    0.0000 O   0  0  0  0  0  0  0  0  0  0  0  0
   -4.0630   -4.0630    0.0000 C   0  0  0  0  0  0  0  0  0  0  0  0
   -5.1237   -5.1237    0.0000 C   0  0  0  0  0  0  0  0  0  0  0  0
   -4.9762   -2.8730    0.0000 C   0  0  0  0  0  0  0  0  0  0  0  0
   -5.5502   -1.4872    0.0000 C   0  0  0  0  0  0  0  0  0  0  0  0
   -5.3544    0.0000    0.0000 C   0  0  0  0  0  0  0  0  0  0  0  0
   -5.5502    1.4872    0.0000 C   0  0  0  0  0  0  0  0  0  0  0  0
   -4.9762    2.8730    0.0000 C   0  0  0  0  0  0  0  0  0  0  0  0
   -4.0630    4.0630    0.0000 C   0  0  0  0  0  0  0  0  0  0  0  0
   -2.8730    4.9762    0.0000 C   0  0  0  0  0  0  0  0  0  0  0  0
   -3.6230    6.2752    0.0000 O   0  0  0  0  0  0  0  0  0  0  0  0
   -2.8730    7.5742    0.0000 C   0  0  0  0  0  0  0  0  0  0  0  0
   -1.4872    5.5502    0.0000 C   0  0  0  0  0  0  0  0  0  0  0  0
    0.0000    5.7460    0.0000 C   0  0  0  0  0  0  0  0  0  0  0  0
    1.4872    5.5502    0.0000 C   0  0  0  0  0  0  0  0  0  0  0  0
    2.8730    4.9762    0.0000 C   0  0  0  0  0  0  0  0  0  0  0  0
    3.6230    6.2752    0.0000 O   0  0  0  0  0  0  0  0  0  0  0  0
    4.0630    4.0630    0.0000 C   0  0  0  0  0  0  0  0  0  0  0  0
    4.9762    2.8730    0.0000 C   0  0  0  0  0  0  0  0  0  0  0  0
    6.2752    3.6230    0.0000 O   0  0  0  0  0  0  0  0  0  0  0  0
    5.5502    1.4872    0.0000 C   0  0  0  0  0  0  0  0  0  0  0  0
    6.9991    1.8754    0.0000 C   0  0  0  0  0  0  0  0  0  0  0  0
  1  2  1  0
  2  3  1  0
  3  4  2  0
  3  5  1  0
  5  6  1  0
  6  7  1  0
  7  8  1  1
  7  9  1  0
  9 10  1  0
 10 11  1  1
 10 12  1  0
 12 13  1  0
 13 14  2  0
 14 15  1  0
 15 16  2  0
 16 17  1  0
 17 18  1  0
 18 19  1  0
 19 20  1  0
 19 21  2  0
 22 21  1  1
 22 23  1  0
 23 24  1  0
 24 25  2  0
 24 26  1  0
 26 27  1  0
 27 28  1  1
 27 29  1  0
 29 30  1  1
 29 31  1  0
 31 32  1  6
 31 33  1  0
 33 34  1  0
 34 35  1  6
 34 36  1  0
 36 37  1  1
 36 38  1  0
 38 39  1  0
 39 40  2  0
 40 41  1  0
 41 42  2  0
 42 43  1  0
 43 44  1  0
 44 45  1  1
 45 46  1  0
 44 47  1  0
 47 48  1  0
 48 49  1  0
 49 50  1  0
 50 51  1  1
 50 52  1  0
 52 53  1  0
 53 54  1  6
 53 55  1  0
 55 56  1  6
 55 22  1  0
M  END
$$$$
