1
     RDKit          2D

105112  0  0  0  0  0  0  0  0999 V2000
    3.0000    0.0000    0.0000 C   0  0  0  0  0  0  0  0  0  0  0  0
    1.5000    0.0000    0.0000 C   0  0  0  0  0  0  0  0  0  0  0  0
    0.7500   -1.2990    0.0000 C   0  0  0  0  0  0  0  0  0  0  0  0
   -0.7500   -1.2990    0.0000 C   0  0  0  0  0  0  0  0  0  0  0  0
   -1.5000   -2.5981    0.0000 C   0  0  0  0  0  0  0  0  0  0  0  0
   -3.0000   -2.5981    0.0000 C   0  0  0  0  0  0  0  0  0  0  0  0
   -3.7500   -1.2990    0.0000 O   0  0  0  0  0  0  0  0  0  0  0  0
   -3.7500   -3.8971    0.0000 C   0  0  0  0  0  0  0  0  0  0  0  0
   -5.2500   -3.8971    0.0000 C   0  0  0  0  0  0  0  0  0  0  0  0
   -6.0000   -5.1962    0.0000 C   0  0  0  0  0  0  0  0  0  0  0  0
   -7.5000   -5.1962    0.0000 C   0  0  0  0  0  0  0  0  0  0  0  0
   -8.2500   -3.8971    0.0000 O   0  0  0  0  0  0  0  0  0  0  0  0
   -8.2500   -6.4952    0.0000 C   0  0  0  0  0  0  0  0  0  0  0  0
   -9.7500   -6.4952    0.0000 C   0  0  0  0  0  0  0  0  0  0  0  0
  -10.5000   -7.7942    0.0000 C   0  0  0  0  0  0  0  0  0  0  0  0
   -9.8899   -9.1645    0.0000 O   0  0  0  0  0  0  0  0  0  0  0  0
  -11.0046  -10.1682    0.0000 C   0  0  0  0  0  0  0  0  0  0  0  0
  -10.8478  -11.6600    0.0000 C   0  0  0  0  0  0  0  0  0  0  0  0
  -12.0613  -12.5417    0.0000 C   0  0  0  0  0  0  0  0  0  0  0  0
  -11.9046  -14.0335    0.0000 C   0  0  0  0  0  0  0  0  0  0  0  0
  -13.1181  -14.9152    0.0000 C   0  0  0  0  0  0  0  0  0  0  0  0
  -12.9613  -16.4069    0.0000 C   0  0  0  0  0  0  0  0  0  0  0  0
  -11.6622  -17.1569    0.0000 O   0  0  0  0  0  0  0  0  0  0  0  0
  -11.9741  -18.6242    0.0000 C   0  0  0  0  0  0  0  0  0  0  0  0
  -10.9704  -19.7389    0.0000 C   0  0  0  0  0  0  0  0  0  0  0  0
  -11.4339  -21.1655    0.0000 C   0  0  0  0  0  0  0  0  0  0  0  0
  -12.9012  -21.4773    0.0000 O   0  0  0  0  0  0  0  0  0  0  0  0
  -10.4302  -22.2802    0.0000 C   0  0  0  0  0  0  0  0  0  0  0  0
  -10.8938  -23.7068    0.0000 C   0  0  0  0  0  0  0  0  0  0  0  0
   -9.8901  -24.8215    0.0000 C   0  0  0  0  0  0  0  0  0  0  0  0
  -10.3536  -26.2481    0.0000 O   0  0  0  0  0  0  0  0  0  0  0  0
   -8.4229  -24.5096    0.0000 C   0  0  0  0  0  0  0  0  0  0  0  0
   -7.4192  -25.6243    0.0000 O   0  0  0  0  0  0  0  0  0  0  0  0
   -7.9593  -23.0830    0.0000 C   0  0  0  0  0  0  0  0  0  0  0  0
   -6.4921  -22.7712    0.0000 C   0  0  0  0  0  0  0  0  0  0  0  0
   -5.4884  -23.8859    0.0000 O   0  0  0  0  0  0  0  0  0  0  0  0
   -6.0286  -21.3446    0.0000 C   0  0  0  0  0  0  0  0  0  0  0  0
   -7.0323  -20.2299    0.0000 O   0  0  0  0  0  0  0  0  0  0  0  0
   -4.5614  -21.0327    0.0000 C   0  0  0  0  0  0  0  0  0  0  0  0
   -4.0978  -19.6061    0.0000 C   0  0  0  0  0  0  0  0  0  0  0  0
   -2.6306  -19.2943    0.0000 C   0  0  0  0  0  0  0  0  0  0  0  0
   -2.1671  -17.8677    0.0000 C   0  0  0  0  0  0  0  0  0  0  0  0
   -1.6269  -20.4090    0.0000 C   0  0  0  0  0  0  0  0  0  0  0  0
   -0.1597  -20.0971    0.0000 C   0  0  0  0  0  0  0  0  0  0  0  0
    0.3038  -18.6705    0.0000 O   0  0  0  0  0  0  0  0  0  0  0  0
    0.8440  -21.2118    0.0000 C   0  0  0  0  0  0  0  0  0  0  0  0
    2.3112  -20.9000    0.0000 C   0  0  0  0  0  0  0  0  0  0  0  0
    2.7747  -19.4734    0.0000 O   0  0  0  0  0  0  0  0  0  0  0  0
    3.3149  -22.0147    0.0000 C   0  0  0  0  0  0  0  0  0  0  0  0
    4.8067  -21.8579    0.0000 O   0  0  0  0  0  0  0  0  0  0  0  0
    5.4168  -23.2282    0.0000 C   0  0  0  0  0  0  0  0  0  0  0  0
    6.8840  -23.5401    0.0000 C   0  0  0  0  0  0  0  0  0  0  0  0
    7.3475  -24.9667    0.0000 C   0  0  0  0  0  0  0  0  0  0  0  0
    6.3439  -26.0814    0.0000 O   0  0  0  0  0  0  0  0  0  0  0  0
    6.8074  -27.5080    0.0000 C   0  0  0  0  0  0  0  0  0  0  0  0
    5.8037  -28.6227    0.0000 C   0  0  0  0  0  0  0  0  0  0  0  0
    4.3365  -28.3108    0.0000 C   0  0  0  0  0  0  0  0  0  0  0  0
    3.8729  -26.8842    0.0000 C   0  0  0  0  0  0  0  0  0  0  0  0
    3.3328  -29.4255    0.0000 C   0  0  0  0  0  0  0  0  0  0  0  0
    1.8655  -29.1137    0.0000 C   0  0  0  0  0  0  0  0  0  0  0  0
    1.4020  -27.6871    0.0000 O   0  0  0  0  0  0  0  0  0  0  0  0
    0.8618  -30.2284    0.0000 C   0  0  0  0  0  0  0  0  0  0  0  0
   -0.6054  -29.9165    0.0000 C   0  0  0  0  0  0  0  0  0  0  0  0
   -1.6091  -31.0312    0.0000 C   0  0  0  0  0  0  0  0  0  0  0  0
   -3.0763  -30.7194    0.0000 C   0  0  0  0  0  0  0  0  0  0  0  0
   -3.5398  -29.2928    0.0000 O   0  0  0  0  0  0  0  0  0  0  0  0
   -4.0800  -31.8341    0.0000 C   0  0  0  0  0  0  0  0  0  0  0  0
   -5.5472  -31.5222    0.0000 C   0  0  0  0  0  0  0  0  0  0  0  0
   -6.0107  -30.0956    0.0000 O   0  0  0  0  0  0  0  0  0  0  0  0
   -7.4780  -29.7838    0.0000 C   0  0  0  0  0  0  0  0  0  0  0  0
   -8.4817  -30.8985    0.0000 C   0  0  0  0  0  0  0  0  0  0  0  0
   -8.0181  -32.3251    0.0000 C   0  0  0  0  0  0  0  0  0  0  0  0
   -9.0218  -33.4398    0.0000 O   0  0  0  0  0  0  0  0  0  0  0  0
   -6.5509  -32.6369    0.0000 C   0  0  0  0  0  0  0  0  0  0  0  0
   -6.0874  -34.0635    0.0000 O   0  0  0  0  0  0  0  0  0  0  0  0
    8.2746  -27.8198    0.0000 C   0  0  0  0  0  0  0  0  0  0  0  0
    9.2783  -26.7051    0.0000 C   0  0  0  0  0  0  0  0  0  0  0  0
   10.7455  -27.0170    0.0000 O   0  0  0  0  0  0  0  0  0  0  0  0
    8.8148  -25.2785    0.0000 C   0  0  0  0  0  0  0  0  0  0  0  0
    9.8185  -24.1638    0.0000 O   0  0  0  0  0  0  0  0  0  0  0  0
    4.3021  -24.2319    0.0000 C   0  0  0  0  0  0  0  0  0  0  0  0
    3.0030  -23.4819    0.0000 C   0  0  0  0  0  0  0  0  0  0  0  0
    1.6327  -24.0920    0.0000 O   0  0  0  0  0  0  0  0  0  0  0  0
   -8.9630  -21.9683    0.0000 O   0  0  0  0  0  0  0  0  0  0  0  0
  -13.4659  -18.7810    0.0000 C   0  0  0  0  0  0  0  0  0  0  0  0
  -14.0760  -17.4106    0.0000 C   0  0  0  0  0  0  0  0  0  0  0  0
  -15.5432  -17.0988    0.0000 O   0  0  0  0  0  0  0  0  0  0  0  0
  -12.3037   -9.4182    0.0000 C   0  0  0  0  0  0  0  0  0  0  0  0
  -11.9918   -7.9510    0.0000 C   0  0  0  0  0  0  0  0  0  0  0  0
  -12.9955   -6.8363    0.0000 O   0  0  0  0  0  0  0  0  0  0  0  0
   -1.5000    0.0000    0.0000 O   0  0  0  0  0  0  0  0  0  0  0  0
   -0.7500    1.2990    0.0000 C   0  0  0  0  0  0  0  0  0  0  0  0
    0.7500    1.2990    0.0000 C   0  0  0  0  0  0  0  0  0  0  0  0
    0.0000    2.5981    0.0000 C   0  0  0  0  0  0  0  0  0  0  0  0
   -0.7500    3.8971    0.0000 C   0  0  0  0  0  0  0  0  0  0  0  0
    0.0000    5.1962    0.0000 O   0  0  0  0  0  0  0  0  0  0  0  0
   -2.2500    3.8971    0.0000 C   0  0  0  0  0  0  0  0  0  0  0  0
   -3.0000    5.1962    0.0000 O   0  0  0  0  0  0  0  0  0  0  0  0
   -3.0000    2.5981    0.0000 C   0  0  0  0  0  0  0  0  0  0  0  0
   -4.5000    2.5981    0.0000 C   0  0  0  0  0  0  0  0  0  0  0  0
   -5.2500    1.2990    0.0000 C   0  0  0  0  0  0  0  0  0  0  0  0
   -4.5000    0.0000    0.0000 O   0  0  0  0  0  0  0  0  0  0  0  0
   -6.7500    1.2990    0.0000 C   0  0  0  0  0  0  0  0  0  0  0  0
   -7.5000    0.0000    0.0000 O   0  0  0  0  0  0  0  0  0  0  0  0
   -2.2500    1.2990    0.0000 O   0  0  0  0  0  0  0  0  0  0  0  0
  1  2  2  0
  2  3  1  0
  3  4  1  0
  4  5  1  1
  5  6  1  0
  6  7  1  6
  6  8  1  0
  8  9  1  0
  9 10  2  0
 10 11  1  0
 11 12  1  6
 11 13  1  0
 13 14  1  0
 15 14  1  1
 15 16  1  0
 16 17  1  0
 17 18  1  1
 18 19  1  0
 19 20  1  0
 20 21  1  0
 22 21  1  1
 22 23  1  0
 23 24  1  0
 24 25  1  1
 25 26  1  0
 26 27  1  1
 26 28  1  0
 28 29  1  1
 29 30  1  0
 30 31  1  6
 30 32  1  0
 32 33  1  1
 32 34  1  0
 34 35  1  0
 35 36  1  1
 35 37  1  0
 37 38  1  1
 37 39  1  0
 39 40  1  0
 40 41  1  0
 41 42  1  0
 41 43  2  0
 43 44  1  0
 44 45  1  6
 44 46  1  0
 46 47  1  0
 47 48  1  1
 47 49  1  0
 49 50  1  1
 50 51  1  0
 51 52  1  1
 53 52  1  6
 53 54  1  0
 54 55  1  0
 55 56  1  6
 56 57  1  0
 57 58  1  0
 57 59  2  0
 59 60  1  0
 60 61  1  1
 60 62  1  0
 62 63  1  0
 63 64  2  0
 64 65  1  0
 65 66  1  6
 65 67  1  0
 68 67  1  6
 68 69  1  0
 69 70  1  0
 70 71  1  0
 71 72  1  0
 72 73  1  1
 72 74  1  0
 74 75  1  1
 55 76  1  0
 76 77  1  0
 77 78  1  1
 77 79  1  0
 79 80  1  1
 51 81  1  0
 81 82  1  0
 82 83  1  1
 34 84  1  6
 24 85  1  0
 85 86  1  0
 86 87  1  1
 17 88  1  0
 88 89  1  0
 89 90  1  1
  4 91  1  0
 91 92  1  0
 92 93  1  6
 92 94  1  0
 94 95  1  0
 95 96  1  6
 95 97  1  0
 97 98  1  1
 97 99  1  0
 99100  1  6
100101  1  0
101102  1  6
101103  1  0
103104  1  0
 99105  1  0
 93  2  1  0
 89 15  1  0
105 92  1  0
 86 22  1  0
 84 28  1  0
 82 49  1  0
 79 53  1  0
 74 68  1  0
M  END
$$$$
40-epi-1
     RDKit          2D

105112  0  0  0  0  0  0  0  0999 V2000
    3.0000    0.0000    0.0000 C   0  0  0  0  0  0  0  0  0  0  0  0
    1.5000    0.0000    0.0000 C   0  0  0  0  0  0  0  0  0  0  0  0
    0.7500   -1.2990    0.0000 C   0  0  0  0  0  0  0  0  0  0  0  0
   -0.7500   -1.2990    0.0000 C   0  0  0  0  0  0  0  0  0  0  0  0
   -1.5000   -2.5981    0.0000 C   0  0  0  0  0  0  0  0  0  0  0  0
   -3.0000   -2.5981    0.0000 C   0  0  0  0  0  0  0  0  0  0  0  0
   -3.7500   -1.2990    0.0000 O   0  0  0  0  0  0  0  0  0  0  0  0
   -3.7500   -3.8971    0.0000 C   0  0  0  0  0  0  0  0  0  0  0  0
   -5.2500   -3.8971    0.0000 C   0  0  0  0  0  0  0  0  0  0  0  0
   -6.0000   -5.1962    0.0000 C   0  0  0  0  0  0  0  0  0  0  0  0
   -7.5000   -5.1962    0.0000 C   0  0  0  0  0  0  0  0  0  0  0  0
   -8.2500   -3.8971    0.0000 O   0  0  0  0  0  0  0  0  0  0  0  0
   -8.2500   -6.4952    0.0000 C   0  0  0  0  0  0  0  0  0  0  0  0
   -9.7500   -6.4952    0.0000 C   0  0  0  0  0  0  0  0  0  0  0  0
  -10.5000   -7.7942    0.0000 C   0  0  0  0  0  0  0  0  0  0  0  0
   -9.8899   -9.1645    0.0000 O   0  0  0  0  0  0  0  0  0  0  0  0
  -11.0046  -10.1682    0.0000 C   0  0  0  0  0  0  0  0  0  0  0  0
  -10.8478  -11.6600    0.0000 C   0  0  0  0  0  0  0  0  0  0  0  0
  -12.0613  -12.5417    0.0000 C   0  0  0  0  0  0  0  0  0  0  0  0
  -11.9046  -14.0335    0.0000 C   0  0  0  0  0  0  0  0  0  0  0  0
  -13.1181  -14.9152    0.0000 C   0  0  0  0  0  0  0  0  0  0  0  0
  -12.9613  -16.4069    0.0000 C   0  0  0  0  0  0  0  0  0  0  0  0
  -11.6622  -17.1569    0.0000 O   0  0  0  0  0  0  0  0  0  0  0  0
  -11.9741  -18.6242    0.0000 C   0  0  0  0  0  0  0  0  0  0  0  0
  -10.9704  -19.7389    0.0000 C   0  0  0  0  0  0  0  0  0  0  0  0
  -11.4339  -21.1655    0.0000 C   0  0  0  0  0  0  0  0  0  0  0  0
  -12.9012  -21.4773    0.0000 O   0  0  0  0  0  0  0  0  0  0  0  0
  -10.4302  -22.2802    0.0000 C   0  0  0  0  0  0  0  0  0  0  0  0
  -10.8938  -23.7068    0.0000 C   0  0  0  0  0  0  0  0  0  0  0  0
   -9.8901  -24.8215    0.0000 C   0  0  0  0  0  0  0  0  0  0  0  0
  -10.3536  -26.2481    0.0000 O   0  0  0  0  0  0  0  0  0  0  0  0
   -8.4229  -24.5096    0.0000 C   0  0  0  0  0  0  0  0  0  0  0  0
   -7.4192  -25.6243    0.0000 O   0  0  0  0  0  0  0  0  0  0  0  0
   -7.9593  -23.0830    0.0000 C   0  0  0  0  0  0  0  0  0  0  0  0
   -6.4921  -22.7712    0.0000 C   0  0  0  0  0  0  0  0  0  0  0  0
   -5.4884  -23.8859    0.0000 O   0  0  0  0  0  0  0  0  0  0  0  0
   -6.0286  -21.3446    0.0000 C   0  0  0  0  0  0  0  0  0  0  0  0
   -7.0323  -20.2299    0.0000 O   0  0  0  0  0  0  0  0  0  0  0  0
   -4.5614  -21.0327    0.0000 C   0  0  0  0  0  0  0  0  0  0  0  0
   -4.0978  -19.6061    0.0000 C   0  0  0  0  0  0  0  0  0  0  0  0
   -2.6306  -19.2943    0.0000 C   0  0  0  0  0  0  0  0  0  0  0  0
   -2.1671  -17.8677    0.0000 C   0  0  0  0  0  0  0  0  0  0  0  0
   -1.6269  -20.4090    0.0000 C   0  0  0  0  0  0  0  0  0  0  0  0
   -0.1597  -20.0971    0.0000 C   0  0  0  0  0  0  0  0  0  0  0  0
    0.3038  -18.6705    0.0000 O   0  0  0  0  0  0  0  0  0  0  0  0
    0.8440  -21.2118    0.0000 C   0  0  0  0  0  0  0  0  0  0  0  0
    2.3112  -20.9000    0.0000 C   0  0  0  0  0  0  0  0  0  0  0  0
    2.7747  -19.4734    0.0000 O   0  0  0  0  0  0  0  0  0  0  0  0
    3.3149  -22.0147    0.0000 C   0  0  0  0  0  0  0  0  0  0  0  0
    4.8067  -21.8579    0.0000 O   0  0  0  0  0  0  0  0  0  0  0  0
    5.4168  -23.2282    0.0000 C   0  0  0  0  0  0  0  0  0  0  0  0
    6.8840  -23.5401    0.0000 C   0  0  0  0  0  0  0  0  0  0  0  0
    7.3475  -24.9667    0.0000 C   0  0  0  0  0  0  0  0  0  0  0  0
    6.3439  -26.0814    0.0000 O   0  0  0  0  0  0  0  0  0  0  0  0
    6.8074  -27.5080    0.0000 C   0  0  0  0  0  0  0  0  0  0  0  0
    5.8037  -28.6227    0.0000 C   0  0  0  0  0  0  0  0  0  0  0  0
    4.3365  -28.3108    0.0000 C   0  0  0  0  0  0  0  0  0  0  0  0
    3.8729  -26.8842    0.0000 C   0  0  0  0  0  0  0  0  0  0  0  0
    3.3328  -29.4255    0.0000 C   0  0  0  0  0  0  0  0  0  0  0  0
    1.8655  -29.1137    0.0000 C   0  0  0  0  0  0  0  0  0  0  0  0
    1.4020  -27.6871    0.0000 O   0  0  0  0  0  0  0  0  0  0  0  0
    0.8618  -30.2284    0.0000 C   0  0  0  0  0  0  0  0  0  0  0  0
   -0.6054  -29.9165    0.0000 C   0  0  0  0  0  0  0  0  0  0  0  0
   -1.6091  -31.0312    0.0000 C   0  0  0  0  0  0  0  0  0  0  0  0
   -3.0763  -30.7194    0.0000 C   0  0  0  0  0  0  0  0  0  0  0  0
   -3.5398  -29.2928    0.0000 O   0  0  0  0  0  0  0  0  0  0  0  0
   -4.0800  -31.8341    0.0000 C   0  0  0  0  0  0  0  0  0  0  0  0
   -5.5472  -31.5222    0.0000 C   0  0  0  0  0  0  0  0  0  0  0  0
   -6.0107  -30.0956    0.0000 O   0  0  0  0  0  0  0  0  0  0  0  0
   -7.4780  -29.7838    0.0000 C   0  0  0  0  0  0  0  0  0  0  0  0
   -8.4817  -30.8985    0.0000 C   0  0  0  0  0  0  0  0  0  0  0  0
   -8.0181  -32.3251    0.0000 C   0  0  0  0  0  0  0  0  0  0  0  0
   -9.0218  -33.4398    0.0000 O   0  0  0  0  0  0  0  0  0  0  0  0
   -6.5509  -32.6369    0.0000 C   0  0  0  0  0  0  0  0  0  0  0  0
   -6.0874  -34.0635    0.0000 O   0  0  0  0  0  0  0  0  0  0  0  0
    8.2746  -27.8198    0.0000 C   0  0  0  0  0  0  0  0  0  0  0  0
    9.2783  -26.7051    0.0000 C   0  0  0  0  0  0  0  0  0  0  0  0
   10.7455  -27.0170    0.0000 O   0  0  0  0  0  0  0  0  0  0  0  0
    8.8148  -25.2785    0.0000 C   0  0  0  0  0  0  0  0  0  0  0  0
    9.8185  -24.1638    0.0000 O   0  0  0  0  0  0  0  0  0  0  0  0
    4.3021  -24.2319    0.0000 C   0  0  0  0  0  0  0  0  0  0  0  0
    3.0030  -23.4819    0.0000 C   0  0  0  0  0  0  0  0  0  0  0  0
    1.6327  -24.0920    0.0000 O   0  0  0  0  0  0  0  0  0  0  0  0
   -8.9630  -21.9683    0.0000 O   0  0  0  0  0  0  0  0  0  0  0  0
  -13.4659  -18.7810    0.0000 C   0  0  0  0  0  0  0  0  0  0  0  0
  -14.0760  -17.4106    0.0000 C   0  0  0  0  0  0  0  0  0  0  0  0
  -15.5432  -17.0988    0.0000 O   0  0  0  0  0  0  0  0  0  0  0  0
  -12.3037   -9.4182    0.0000 C   0  0  0  0  0  0  0  0  0  0  0  0
  -11.9918   -7.9510    0.0000 C   0  0  0  0  0  0  0  0  0  0  0  0
  -12.9955   -6.8363    0.0000 O   0  0  0  0  0  0  0  0  0  0  0  0
   -1.5000    0.0000    0.0000 O   0  0  0  0  0  0  0  0  0  0  0  0
   -0.7500    1.2990    0.0000 C   0  0  0  0  0  0  0  0  0  0  0  0
    0.7500    1.2990    0.0000 C   0  0  0  0  0  0  0  0  0  0  0  0
    0.0000    2.5981    0.0000 C   0  0  0  0  0  0  0  0  0  0  0  0
   -0.7500    3.8971    0.0000 C   0  0  0  0  0  0  0  0  0  0  0  0
    0.0000    5.1962    0.0000 O   0  0  0  0  0  0  0  0  0  0  0  0
   -2.2500    3.8971    0.0000 C   0  0  0  0  0  0  0  0  0  0  0  0
   -3.0000    5.1962    0.0000 O   0  0  0  0  0  0  0  0  0  0  0  0
   -3.0000    2.5981    0.0000 C   0  0  0  0  0  0  0  0  0  0  0  0
   -4.5000    2.5981    0.0000 C   0  0  0  0  0  0  0  0  0  0  0  0
   -5.2500    1.2990    0.0000 C   0  0  0  0  0  0  0  0  0  0  0  0
   -4.5000    0.0000    0.0000 O   0  0  0  0  0  0  0  0  0  0  0  0
   -6.7500    1.2990    0.0000 C   0  0  0  0  0  0  0  0  0  0  0  0
   -7.5000    0.0000    0.0000 O   0  0  0  0  0  0  0  0  0  0  0  0
   -2.2500    1.2990    0.0000 O   0  0  0  0  0  0  0  0  0  0  0  0
  1  2  2  0
  2  3  1  0
  3  4  1  0
  4  5  1  1
  5  6  1  0
  6  7  1  6
  6  8  1  0
  8  9  1  0
  9 10  2  0
 10 11  1  0
 11 12  1  6
 11 13  1  0
 13 14  1  0
 15 14  1  1
 15 16  1  0
 16 17  1  0
 17 18  1  1
 18 19  1  0
 19 20  1  0
 20 21  1  0
 22 21  1  1
 22 23  1  0
 23 24  1  0
 24 25  1  1
 25 26  1  0
 26 27  1  1
 26 28  1  0
 28 29  1  1
 29 30  1  0
 30 31  1  6
 30 32  1  0
 32 33  1  1
 32 34  1  0
 34 35  1  0
 35 36  1  6
 35 37  1  0
 37 38  1  1
 37 39  1  0
 39 40  1  0
 40 41  1  0
 41 42  1  0
 41 43  2  0
 43 44  1  0
 44 45  1  6
 44 46  1  0
 46 47  1  0
 47 48  1  1
 47 49  1  0
 49 50  1  1
 50 51  1  0
 51 52  1  1
 53 52  1  6
 53 54  1  0
 54 55  1  0
 55 56  1  6
 56 57  1  0
 57 58  1  0
 57 59  2  0
 59 60  1  0
 60 61  1  1
 60 62  1  0
 62 63  1  0
 63 64  2  0
 64 65  1  0
 65 66  1  6
 65 67  1  0
 68 67  1  6
 68 69  1  0
 69 70  1  0
 70 71  1  0
 71 72  1  0
 72 73  1  1
 72 74  1  0
 74 75  1  1
 55 76  1  0
 76 77  1  0
 77 78  1  1
 77 79  1  0
 79 80  1  1
 51 81  1  0
 81 82  1  0
 82 83  1  1
 34 84  1  6
 24 85  1  0
 85 86  1  0
 86 87  1  1
 17 88  1  0
 88 89  1  0
 89 90  1  1
  4 91  1  0
 91 92  1  0
 92 93  1  6
 92 94  1  0
 94 95  1  0
 95 96  1  6
 95 97  1  0
 97 98  1  1
 97 99  1  0
 99100  1  6
100101  1  0
101102  1  6
101103  1  0
103104  1  0
 99105  1  0
 93  2  1  0
 89 15  1  0
105 92  1  0
 86 22  1  0
 84 28  1  0
 82 49  1  0
 79 53  1  0
 74 68  1  0
M  END
$$$$
38
     RDKit          2D

 81 83  0  0  0  0  0  0  0  0999 V2000
    6.0000   -2.5981    0.0000 C   0  0  0  0  0  0  0  0  0  0  0  0
    5.2500   -1.2990    0.0000 C   0  0  0  0  0  0  0  0  0  0  0  0
    3.7500   -1.2990    0.0000 C   0  0  0  0  0  0  0  0  0  0  0  0
    3.0000   -2.5981    0.0000 O   0  0  0  0  0  0  0  0  0  0  0  0
    3.7500   -3.8971    0.0000 Si  0  0  0  0  0  4  0  0  0  0  0  0
    2.4510   -4.6471    0.0000 C   0  0  0  0  0  0  0  0  0  0  0  0
    5.0490   -3.1471    0.0000 C   0  0  0  0  0  0  0  0  0  0  0  0
    4.5000   -5.1962    0.0000 C   0  0  0  0  0  0  0  0  0  0  0  0
    3.2010   -5.9462    0.0000 C   0  0  0  0  0  0  0  0  0  0  0  0
    5.7990   -4.4462    0.0000 C   0  0  0  0  0  0  0  0  0  0  0  0
    5.2500   -6.4952    0.0000 C   0  0  0  0  0  0  0  0  0  0  0  0
    3.0000   -0.0000    0.0000 C   0  0  0  0  0  0  0  0  0  0  0  0
    3.7500    1.2990    0.0000 O   0  0  0  0  0  0  0  0  0  0  0  0
    5.2500    1.2990    0.0000 Si  0  0  0  0  0  4  0  0  0  0  0  0
    5.2500    2.7990    0.0000 C   0  0  0  0  0  0  0  0  0  0  0  0
    5.2500   -0.2010    0.0000 C   0  0  0  0  0  0  0  0  0  0  0  0
    6.7500    1.2990    0.0000 C   0  0  0  0  0  0  0  0  0  0  0  0
    6.7500   -0.2010    0.0000 C   0  0  0  0  0  0  0  0  0  0  0  0
    6.7500    2.7990    0.0000 C   0  0  0  0  0  0  0  0  0  0  0  0
    8.2500    1.2990    0.0000 C   0  0  0  0  0  0  0  0  0  0  0  0
    1.5000    0.0000    0.0000 C   0  0  0  0  0  0  0  0  0  0  0  0
    0.7500   -1.2990    0.0000 O   0  0  0  0  0  0  0  0  0  0  0  0
   -0.7500   -1.2990    0.0000 C   0  0  0  0  0  0  0  0  0  0  0  0
   -1.5000   -2.5981    0.0000 C   0  0  0  0  0  0  0  0  0  0  0  0
   -0.7500   -3.8971    0.0000 O   0  0  0  0  0  0  0  0  0  0  0  0
   -3.0000   -2.5981    0.0000 C   0  0  0  0  0  0  0  0  0  0  0  0
   -3.7500   -3.8971    0.0000 C   0  0  0  0  0  0  0  0  0  0  0  0
   -3.1399   -5.2674    0.0000 C   0  0  0  0  0  0  0  0  0  0  0  0
   -4.2546   -6.2711    0.0000 C   0  0  0  0  0  0  0  0  0  0  0  0
   -4.0978   -7.7629    0.0000 O   0  0  0  0  0  0  0  0  0  0  0  0
   -5.3113   -8.6446    0.0000 Si  0  0  0  0  0  4  0  0  0  0  0  0
   -4.4297   -9.8581    0.0000 C   0  0  0  0  0  0  0  0  0  0  0  0
   -6.1930   -7.4311    0.0000 C   0  0  0  0  0  0  0  0  0  0  0  0
   -6.5249   -9.5263    0.0000 C   0  0  0  0  0  0  0  0  0  0  0  0
   -7.4065   -8.3127    0.0000 C   0  0  0  0  0  0  0  0  0  0  0  0
   -5.6432  -10.7398    0.0000 C   0  0  0  0  0  0  0  0  0  0  0  0
   -7.7384  -10.4079    0.0000 C   0  0  0  0  0  0  0  0  0  0  0  0
   -5.5537   -5.5211    0.0000 C   0  0  0  0  0  0  0  0  0  0  0  0
   -6.9240   -6.1312    0.0000 C   0  0  0  0  0  0  0  0  0  0  0  0
   -8.1375   -5.2496    0.0000 C   0  0  0  0  0  0  0  0  0  0  0  0
   -9.5078   -5.8597    0.0000 C   0  0  0  0  0  0  0  0  0  0  0  0
  -10.7213   -4.9780    0.0000 C   0  0  0  0  0  0  0  0  0  0  0  0
  -12.0917   -5.5881    0.0000 C   0  0  0  0  0  0  0  0  0  0  0  0
  -12.4035   -7.0553    0.0000 C   0  0  0  0  0  0  0  0  0  0  0  0
  -13.8953   -7.2121    0.0000 C   0  0  0  0  0  0  0  0  0  0  0  0
  -14.6453   -8.5111    0.0000 O   0  0  0  0  0  0  0  0  0  0  0  0
  -16.1453   -8.5111    0.0000 Si  0  0  0  0  0  4  0  0  0  0  0  0
  -16.1453  -10.0111    0.0000 C   0  0  0  0  0  0  0  0  0  0  0  0
  -16.1453   -7.0111    0.0000 C   0  0  0  0  0  0  0  0  0  0  0  0
  -17.6453   -8.5111    0.0000 C   0  0  0  0  0  0  0  0  0  0  0  0
  -17.6453   -7.0111    0.0000 C   0  0  0  0  0  0  0  0  0  0  0  0
  -17.6453  -10.0111    0.0000 C   0  0  0  0  0  0  0  0  0  0  0  0
  -19.1453   -8.5111    0.0000 C   0  0  0  0  0  0  0  0  0  0  0  0
  -14.5054   -5.8418    0.0000 C   0  0  0  0  0  0  0  0  0  0  0  0
  -15.9726   -5.5299    0.0000 C   0  0  0  0  0  0  0  0  0  0  0  0
  -16.4362   -4.1033    0.0000 C   0  0  0  0  0  0  0  0  0  0  0  0
  -17.9034   -3.7915    0.0000 C   0  0  0  0  0  0  0  0  0  0  0  0
  -18.9071   -4.9062    0.0000 O   0  0  0  0  0  0  0  0  0  0  0  0
  -18.3669   -2.3649    0.0000 O   0  0  0  0  0  0  0  0  0  0  0  0
  -19.8341   -2.0530    0.0000 C   0  0  0  0  0  0  0  0  0  0  0  0
  -13.3907   -4.8381    0.0000 O   0  0  0  0  0  0  0  0  0  0  0  0
   -5.2418   -4.0539    0.0000 O   0  0  0  0  0  0  0  0  0  0  0  0
   -1.5000    0.0000    0.0000 C   0  0  0  0  0  0  0  0  0  0  0  0
   -0.7500    1.2990    0.0000 C   0  0  0  0  0  0  0  0  0  0  0  0
   -1.5000    2.5981    0.0000 O   0  0  0  0  0  0  0  0  0  0  0  0
   -0.7500    3.8971    0.0000 Si  0  0  0  0  0  4  0  0  0  0  0  0
   -2.0490    4.6471    0.0000 C   0  0  0  0  0  0  0  0  0  0  0  0
    0.5490    3.1471    0.0000 C   0  0  0  0  0  0  0  0  0  0  0  0
    0.0000    5.1962    0.0000 C   0  0  0  0  0  0  0  0  0  0  0  0
    1.2990    4.4462    0.0000 C   0  0  0  0  0  0  0  0  0  0  0  0
   -1.2990    5.9462    0.0000 C   0  0  0  0  0  0  0  0  0  0  0  0
    0.7500    6.4952    0.0000 C   0  0  0  0  0  0  0  0  0  0  0  0
    0.7500    1.2990    0.0000 C   0  0  0  0  0  0  0  0  0  0  0  0
    1.5000    2.5981    0.0000 O   0  0  0  0  0  0  0  0  0  0  0  0
    3.0000    2.5981    0.0000 Si  0  0  0  0  0  4  0  0  0  0  0  0
    3.0000    4.0981    0.0000 C   0  0  0  0  0  0  0  0  0  0  0  0
    2.6370    1.1427    0.0000 C   0  0  0  0  0  0  0  0  0  0  0  0
    4.5000    2.5981    0.0000 C   0  0  0  0  0  0  0  0  0  0  0  0
    4.5000    4.0981    0.0000 C   0  0  0  0  0  0  0  0  0  0  0  0
    4.8743    1.8943    0.0000 C   0  0  0  0  0  0  0  0  0  0  0  0
    6.0000    2.5981    0.0000 C   0  0  0  0  0  0  0  0  0  0  0  0
  1  2  2  0
  2  3  1  0
  3  4  1  6
  4  5  1  0
  5  6  1  0
  5  7  1  0
  5  8  1  0
  8  9  1  0
  8 10  1  0
  8 11  1  0
  3 12  1  0
 12 13  1  6
 13 14  1  0
 14 15  1  0
 14 16  1  0
 14 17  1  0
 17 18  1  0
 17 19  1  0
 17 20  1  0
 12 21  1  0
 21 22  1  1
 22 23  1  0
 23 24  1  0
 24 25  1  1
 24 26  1  0
 27 26  1  1
 27 28  1  0
 28 29  1  0
 29 30  1  1
 30 31  1  0
 31 32  1  0
 31 33  1  0
 31 34  1  0
 34 35  1  0
 34 36  1  0
 34 37  1  0
 29 38  1  0
 38 39  1  1
 39 40  1  0
 40 41  1  0
 41 42  1  0
 43 42  1  1
 43 44  1  0
 44 45  1  0
 45 46  1  1
 46 47  1  0
 47 48  1  0
 47 49  1  0
 47 50  1  0
 50 51  1  0
 50 52  1  0
 50 53  1  0
 45 54  1  0
 54 55  1  1
 55 56  1  0
 56 57  1  0
 57 58  2  0
 57 59  1  0
 59 60  1  0
 54 61  1  0
 38 62  1  0
 23 63  1  6
 63 64  1  0
 64 65  1  1
 65 66  1  0
 66 67  1  0
 66 68  1  0
 66 69  1  0
 69 70  1  0
 69 71  1  0
 69 72  1  0
 64 73  1  0
 73 74  1  6
 74 75  1  0
 75 76  1  0
 75 77  1  0
 75 78  1  0
 78 79  1  0
 78 80  1  0
 78 81  1  0
 73 21  1  0
 62 27  1  0
 61 43  1  0
M  END
$$$$
39
     RDKit          2D

187192  0  0  0  0  0  0  0  0999 V2000
    0.0482  -22.1349    0.0000 C   0  0  0  0  0  0  0  0  0  0  0  0
   -0.7018  -20.8359    0.0000 O   0  0  0  0  0  0  0  0  0  0  0  0
    0.0482  -19.5369    0.0000 C   0  0  0  0  0  0  0  0  0  0  0  0
    1.5482  -19.5369    0.0000 O   0  0  0  0  0  0  0  0  0  0  0  0
   -0.7018  -18.2378    0.0000 C   0  0  0  0  0  0  0  0  0  0  0  0
    0.0482  -16.9388    0.0000 C   0  0  0  0  0  0  0  0  0  0  0  0
   -0.7018  -15.6397    0.0000 C   0  0  0  0  0  0  0  0  0  0  0  0
   -0.0917  -14.2694    0.0000 O   0  0  0  0  0  0  0  0  0  0  0  0
   -1.2064  -13.2657    0.0000 C   0  0  0  0  0  0  0  0  0  0  0  0
   -1.0496  -11.7739    0.0000 C   0  0  0  0  0  0  0  0  0  0  0  0
    0.3207  -11.1638    0.0000 C   0  0  0  0  0  0  0  0  0  0  0  0
    0.4775   -9.6721    0.0000 C   0  0  0  0  0  0  0  0  0  0  0  0
    1.8478   -9.0619    0.0000 C   0  0  0  0  0  0  0  0  0  0  0  0
    2.0046   -7.5702    0.0000 C   0  0  0  0  0  0  0  0  0  0  0  0
    0.8899   -6.5665    0.0000 O   0  0  0  0  0  0  0  0  0  0  0  0
    1.5000   -5.1962    0.0000 C   0  0  0  0  0  0  0  0  0  0  0  0
    0.7500   -3.8971    0.0000 C   0  0  0  0  0  0  0  0  0  0  0  0
    1.5000   -2.5981    0.0000 C   0  0  0  0  0  0  0  0  0  0  0  0
    3.0000   -2.5981    0.0000 O   0  0  0  0  0  0  0  0  0  0  0  0
    0.7500   -1.2990    0.0000 C   0  0  0  0  0  0  0  0  0  0  0  0
    1.5000   -0.0000    0.0000 C   0  0  0  0  0  0  0  0  0  0  0  0
    0.7500    1.2990    0.0000 C   0  0  0  0  0  0  0  0  0  0  0  0
    1.5000    2.5981    0.0000 O   0  0  0  0  0  0  0  0  0  0  0  0
    3.0000    2.5981    0.0000 Si  0  0  0  0  0  4  0  0  0  0  0  0
    3.0000    4.0981    0.0000 C   0  0  0  0  0  0  0  0  0  0  0  0
    3.0000    1.0981    0.0000 C   0  0  0  0  0  0  0  0  0  0  0  0
    4.5000    2.5981    0.0000 C   0  0  0  0  0  0  0  0  0  0  0  0
    4.5000    1.0981    0.0000 C   0  0  0  0  0  0  0  0  0  0  0  0
    4.5000    4.0981    0.0000 C   0  0  0  0  0  0  0  0  0  0  0  0
    6.0000    2.5981    0.0000 C   0  0  0  0  0  0  0  0  0  0  0  0
   -0.7500    1.2990    0.0000 C   0  0  0  0  0  0  0  0  0  0  0  0
   -1.5000    2.5981    0.0000 O   0  0  0  0  0  0  0  0  0  0  0  0
   -0.7500    3.8971    0.0000 Si  0  0  0  0  0  4  0  0  0  0  0  0
   -1.8281    4.7096    0.0000 C   0  0  0  0  0  0  0  0  0  0  0  0
    0.5490    3.1471    0.0000 C   0  0  0  0  0  0  0  0  0  0  0  0
    0.0000    5.1962    0.0000 C   0  0  0  0  0  0  0  0  0  0  0  0
   -1.2990    5.9462    0.0000 C   0  0  0  0  0  0  0  0  0  0  0  0
    1.2990    4.4462    0.0000 C   0  0  0  0  0  0  0  0  0  0  0  0
    0.7500    6.4952    0.0000 C   0  0  0  0  0  0  0  0  0  0  0  0
   -1.5000   -0.0000    0.0000 C   0  0  0  0  0  0  0  0  0  0  0  0
   -3.0000   -0.0000    0.0000 C   0  0  0  0  0  0  0  0  0  0  0  0
   -3.7500   -1.2990    0.0000 O   0  0  0  0  0  0  0  0  0  0  0  0
   -3.0000   -2.5981    0.0000 Si  0  0  0  0  0  4  0  0  0  0  0  0
   -4.2990   -3.3481    0.0000 C   0  0  0  0  0  0  0  0  0  0  0  0
   -1.7010   -1.8481    0.0000 C   0  0  0  0  0  0  0  0  0  0  0  0
   -2.2500   -3.8971    0.0000 C   0  0  0  0  0  0  0  0  0  0  0  0
   -0.9510   -3.1471    0.0000 C   0  0  0  0  0  0  0  0  0  0  0  0
   -3.5490   -4.6471    0.0000 C   0  0  0  0  0  0  0  0  0  0  0  0
   -1.5000   -5.1962    0.0000 C   0  0  0  0  0  0  0  0  0  0  0  0
   -3.7500    1.2990    0.0000 C   0  0  0  0  0  0  0  0  0  0  0  0
   -5.2500    1.2990    0.0000 C   0  0  0  0  0  0  0  0  0  0  0  0
   -6.0000    2.5981    0.0000 C   0  0  0  0  0  0  0  0  0  0  0  0
   -7.5000    2.5981    0.0000 C   0  0  0  0  0  0  0  0  0  0  0  0
   -8.2500    1.2990    0.0000 C   0  0  0  0  0  0  0  0  0  0  0  0
   -8.2500    3.8971    0.0000 C   0  0  0  0  0  0  0  0  0  0  0  0
   -9.7500    3.8971    0.0000 C   0  0  0  0  0  0  0  0  0  0  0  0
  -10.5000    5.1962    0.0000 C   0  0  0  0  0  0  0  0  0  0  0  0
  -12.0000    5.1962    0.0000 C   0  0  0  0  0  0  0  0  0  0  0  0
  -12.7500    3.8971    0.0000 O   0  0  0  0  0  0  0  0  0  0  0  0
  -14.2500    3.8971    0.0000 Si  0  0  0  0  0  4  0  0  0  0  0  0
  -14.2500    2.3971    0.0000 C   0  0  0  0  0  0  0  0  0  0  0  0
  -14.2500    5.3971    0.0000 C   0  0  0  0  0  0  0  0  0  0  0  0
  -15.7500    3.8971    0.0000 C   0  0  0  0  0  0  0  0  0  0  0  0
  -15.7500    5.3971    0.0000 C   0  0  0  0  0  0  0  0  0  0  0  0
  -15.7500    2.3971    0.0000 C   0  0  0  0  0  0  0  0  0  0  0  0
  -17.2500    3.8971    0.0000 C   0  0  0  0  0  0  0  0  0  0  0  0
  -12.7500    6.4952    0.0000 C   0  0  0  0  0  0  0  0  0  0  0  0
  -14.2418    6.6520    0.0000 O   0  0  0  0  0  0  0  0  0  0  0  0
  -14.5537    8.1192    0.0000 C   0  0  0  0  0  0  0  0  0  0  0  0
  -15.9240    8.7293    0.0000 C   0  0  0  0  0  0  0  0  0  0  0  0
  -16.0808   10.2211    0.0000 C   0  0  0  0  0  0  0  0  0  0  0  0
  -14.8672   11.1028    0.0000 O   0  0  0  0  0  0  0  0  0  0  0  0
  -15.0240   12.5946    0.0000 C   0  0  0  0  0  0  0  0  0  0  0  0
  -13.8105   13.4762    0.0000 C   0  0  0  0  0  0  0  0  0  0  0  0
  -12.4402   12.8661    0.0000 C   0  0  0  0  0  0  0  0  0  0  0  0
  -12.2834   11.3743    0.0000 C   0  0  0  0  0  0  0  0  0  0  0  0
  -11.2267   13.7478    0.0000 C   0  0  0  0  0  0  0  0  0  0  0  0
   -9.8563   13.1377    0.0000 C   0  0  0  0  0  0  0  0  0  0  0  0
   -8.6428   14.0194    0.0000 C   0  0  0  0  0  0  0  0  0  0  0  0
   -7.2725   13.4093    0.0000 C   0  0  0  0  0  0  0  0  0  0  0  0
   -6.0590   14.2909    0.0000 C   0  0  0  0  0  0  0  0  0  0  0  0
   -4.6887   13.6808    0.0000 C   0  0  0  0  0  0  0  0  0  0  0  0
   -3.4751   14.5625    0.0000 C   0  0  0  0  0  0  0  0  0  0  0  0
   -3.6319   16.0543    0.0000 C   0  0  0  0  0  0  0  0  0  0  0  0
   -5.0022   16.6644    0.0000 O   0  0  0  0  0  0  0  0  0  0  0  0
   -5.1590   18.1562    0.0000 C   0  0  0  0  0  0  0  0  0  0  0  0
   -3.9455   19.0379    0.0000 C   0  0  0  0  0  0  0  0  0  0  0  0
   -2.5752   18.4278    0.0000 C   0  0  0  0  0  0  0  0  0  0  0  0
   -1.3617   19.3094    0.0000 O   0  0  0  0  0  0  0  0  0  0  0  0
   -1.5185   20.8012    0.0000 Si  0  0  0  0  0  4  0  0  0  0  0  0
   -0.0267   20.9580    0.0000 C   0  0  0  0  0  0  0  0  0  0  0  0
   -3.0102   20.6444    0.0000 C   0  0  0  0  0  0  0  0  0  0  0  0
   -1.6752   22.2930    0.0000 C   0  0  0  0  0  0  0  0  0  0  0  0
   -3.1670   22.1362    0.0000 C   0  0  0  0  0  0  0  0  0  0  0  0
   -0.1835   22.4498    0.0000 C   0  0  0  0  0  0  0  0  0  0  0  0
   -1.8320   23.7848    0.0000 C   0  0  0  0  0  0  0  0  0  0  0  0
   -2.4184   16.9360    0.0000 C   0  0  0  0  0  0  0  0  0  0  0  0
   -1.0481   16.3259    0.0000 O   0  0  0  0  0  0  0  0  0  0  0  0
    0.1654   17.2076    0.0000 Si  0  0  0  0  0  4  0  0  0  0  0  0
    1.0471   15.9940    0.0000 C   0  0  0  0  0  0  0  0  0  0  0  0
   -0.7162   18.4211    0.0000 C   0  0  0  0  0  0  0  0  0  0  0  0
    1.3790   18.0892    0.0000 C   0  0  0  0  0  0  0  0  0  0  0  0
    2.2607   16.8757    0.0000 C   0  0  0  0  0  0  0  0  0  0  0  0
    0.4973   19.3028    0.0000 C   0  0  0  0  0  0  0  0  0  0  0  0
    2.5925   18.9709    0.0000 C   0  0  0  0  0  0  0  0  0  0  0  0
   -4.5319   12.1891    0.0000 O   0  0  0  0  0  0  0  0  0  0  0  0
   -3.1615   11.5790    0.0000 Si  0  0  0  0  0  4  0  0  0  0  0  0
   -3.7716   10.2086    0.0000 C   0  0  0  0  0  0  0  0  0  0  0  0
   -2.5514   12.9493    0.0000 C   0  0  0  0  0  0  0  0  0  0  0  0
   -1.7912   10.9689    0.0000 C   0  0  0  0  0  0  0  0  0  0  0  0
   -2.4013    9.5985    0.0000 C   0  0  0  0  0  0  0  0  0  0  0  0
   -1.1811   12.3392    0.0000 C   0  0  0  0  0  0  0  0  0  0  0  0
   -0.4209   10.3587    0.0000 C   0  0  0  0  0  0  0  0  0  0  0  0
   -9.6995   11.6459    0.0000 O   0  0  0  0  0  0  0  0  0  0  0  0
   -8.3292   11.0358    0.0000 Si  0  0  0  0  0  4  0  0  0  0  0  0
   -8.9393    9.6655    0.0000 C   0  0  0  0  0  0  0  0  0  0  0  0
   -7.7191   12.4061    0.0000 C   0  0  0  0  0  0  0  0  0  0  0  0
   -6.9589   10.4257    0.0000 C   0  0  0  0  0  0  0  0  0  0  0  0
   -6.3488   11.7960    0.0000 C   0  0  0  0  0  0  0  0  0  0  0  0
   -7.5690    9.0554    0.0000 C   0  0  0  0  0  0  0  0  0  0  0  0
   -5.5886    9.8156    0.0000 C   0  0  0  0  0  0  0  0  0  0  0  0
  -16.3943   13.2047    0.0000 C   0  0  0  0  0  0  0  0  0  0  0  0
  -17.6079   12.3230    0.0000 C   0  0  0  0  0  0  0  0  0  0  0  0
  -18.9782   12.9331    0.0000 O   0  0  0  0  0  0  0  0  0  0  0  0
  -19.1350   14.4249    0.0000 Si  0  0  0  0  0  4  0  0  0  0  0  0
  -20.6268   14.2681    0.0000 C   0  0  0  0  0  0  0  0  0  0  0  0
  -17.6432   14.5817    0.0000 C   0  0  0  0  0  0  0  0  0  0  0  0
  -19.2918   15.9167    0.0000 C   0  0  0  0  0  0  0  0  0  0  0  0
  -17.8000   16.0734    0.0000 C   0  0  0  0  0  0  0  0  0  0  0  0
  -20.7836   15.7599    0.0000 C   0  0  0  0  0  0  0  0  0  0  0  0
  -19.4486   17.4084    0.0000 C   0  0  0  0  0  0  0  0  0  0  0  0
  -17.4511   10.8312    0.0000 C   0  0  0  0  0  0  0  0  0  0  0  0
  -18.6646    9.9495    0.0000 O   0  0  0  0  0  0  0  0  0  0  0  0
  -20.0349   10.5596    0.0000 Si  0  0  0  0  0  4  0  0  0  0  0  0
  -20.6450    9.1893    0.0000 C   0  0  0  0  0  0  0  0  0  0  0  0
  -19.4248   11.9299    0.0000 C   0  0  0  0  0  0  0  0  0  0  0  0
  -21.4052   11.1697    0.0000 C   0  0  0  0  0  0  0  0  0  0  0  0
  -22.0153    9.7994    0.0000 C   0  0  0  0  0  0  0  0  0  0  0  0
  -20.7951   12.5400    0.0000 C   0  0  0  0  0  0  0  0  0  0  0  0
  -22.7756   11.7798    0.0000 C   0  0  0  0  0  0  0  0  0  0  0  0
  -13.2546    8.8692    0.0000 C   0  0  0  0  0  0  0  0  0  0  0  0
  -12.1399    7.8655    0.0000 C   0  0  0  0  0  0  0  0  0  0  0  0
  -10.6727    8.1774    0.0000 O   0  0  0  0  0  0  0  0  0  0  0  0
   -9.6690    7.0627    0.0000 Si  0  0  0  0  0  4  0  0  0  0  0  0
  -10.7837    6.0590    0.0000 C   0  0  0  0  0  0  0  0  0  0  0  0
   -8.5543    8.0664    0.0000 C   0  0  0  0  0  0  0  0  0  0  0  0
   -8.6653    5.9479    0.0000 C   0  0  0  0  0  0  0  0  0  0  0  0
   -7.5506    6.9516    0.0000 C   0  0  0  0  0  0  0  0  0  0  0  0
   -9.7800    4.9442    0.0000 C   0  0  0  0  0  0  0  0  0  0  0  0
   -7.6616    4.8332    0.0000 C   0  0  0  0  0  0  0  0  0  0  0  0
  -10.5000    2.5981    0.0000 O   0  0  0  0  0  0  0  0  0  0  0  0
   -9.7500    1.2990    0.0000 Si  0  0  0  0  0  4  0  0  0  0  0  0
  -11.0490    0.5490    0.0000 C   0  0  0  0  0  0  0  0  0  0  0  0
   -8.4510    2.0490    0.0000 C   0  0  0  0  0  0  0  0  0  0  0  0
   -9.0000   -0.0000    0.0000 C   0  0  0  0  0  0  0  0  0  0  0  0
  -10.2990   -0.7500    0.0000 C   0  0  0  0  0  0  0  0  0  0  0  0
   -7.7010    0.7500    0.0000 C   0  0  0  0  0  0  0  0  0  0  0  0
   -8.2500   -1.2990    0.0000 C   0  0  0  0  0  0  0  0  0  0  0  0
   -3.0000    2.5981    0.0000 O   0  0  0  0  0  0  0  0  0  0  0  0
   -3.7500    3.8971    0.0000 Si  0  0  0  0  0  4  0  0  0  0  0  0
   -5.0490    3.1471    0.0000 C   0  0  0  0  0  0  0  0  0  0  0  0
   -2.6719    4.7096    0.0000 C   0  0  0  0  0  0  0  0  0  0  0  0
   -4.5000    5.1962    0.0000 C   0  0  0  0  0  0  0  0  0  0  0  0
   -3.2010    5.9462    0.0000 C   0  0  0  0  0  0  0  0  0  0  0  0
   -5.7990    4.4462    0.0000 C   0  0  0  0  0  0  0  0  0  0  0  0
   -5.2500    6.4952    0.0000 C   0  0  0  0  0  0  0  0  0  0  0  0
   -0.7500   -1.2990    0.0000 O   0  0  0  0  0  0  0  0  0  0  0  0
    2.9918   -5.3529    0.0000 C   0  0  0  0  0  0  0  0  0  0  0  0
    3.3037   -6.8202    0.0000 C   0  0  0  0  0  0  0  0  0  0  0  0
    4.6740   -7.4303    0.0000 O   0  0  0  0  0  0  0  0  0  0  0  0
    5.8875   -6.5486    0.0000 Si  0  0  0  0  0  4  0  0  0  0  0  0
    6.7692   -7.7621    0.0000 C   0  0  0  0  0  0  0  0  0  0  0  0
    5.0058   -5.3351    0.0000 C   0  0  0  0  0  0  0  0  0  0  0  0
    7.1010   -5.6669    0.0000 C   0  0  0  0  0  0  0  0  0  0  0  0
    6.2193   -4.4534    0.0000 C   0  0  0  0  0  0  0  0  0  0  0  0
    7.9827   -6.8804    0.0000 C   0  0  0  0  0  0  0  0  0  0  0  0
    8.3145   -4.7852    0.0000 C   0  0  0  0  0  0  0  0  0  0  0  0
   -2.5054  -14.0157    0.0000 C   0  0  0  0  0  0  0  0  0  0  0  0
   -2.1936  -15.4829    0.0000 C   0  0  0  0  0  0  0  0  0  0  0  0
   -3.1973  -16.5977    0.0000 O   0  0  0  0  0  0  0  0  0  0  0  0
   -4.6645  -16.2858    0.0000 Si  0  0  0  0  0  4  0  0  0  0  0  0
   -4.9764  -17.7530    0.0000 C   0  0  0  0  0  0  0  0  0  0  0  0
   -4.3526  -14.8186    0.0000 C   0  0  0  0  0  0  0  0  0  0  0  0
   -6.1317  -15.9739    0.0000 C   0  0  0  0  0  0  0  0  0  0  0  0
   -5.8198  -14.5067    0.0000 C   0  0  0  0  0  0  0  0  0  0  0  0
   -6.4436  -17.4411    0.0000 C   0  0  0  0  0  0  0  0  0  0  0  0
   -7.5989  -15.6621    0.0000 C   0  0  0  0  0  0  0  0  0  0  0  0
  1  2  1  0
  2  3  1  0
  3  4  2  0
  3  5  1  0
  5  6  1  0
  7  6  1  6
  7  8  1  0
  8  9  1  0
  9 10  1  6
 10 11  1  0
 11 12  1  0
 12 13  1  0
 14 13  1  1
 14 15  1  0
 15 16  1  0
 16 17  1  1
 17 18  1  0
 18 19  1  1
 18 20  1  0
 20 21  1  1
 21 22  1  0
 22 23  1  6
 23 24  1  0
 24 25  1  0
 24 26  1  0
 24 27  1  0
 27 28  1  0
 27 29  1  0
 27 30  1  0
 22 31  1  0
 31 32  1  1
 32 33  1  0
 33 34  1  0
 33 35  1  0
 33 36  1  0
 36 37  1  0
 36 38  1  0
 36 39  1  0
 31 40  1  0
 40 41  1  0
 41 42  1  6
 42 43  1  0
 43 44  1  0
 43 45  1  0
 43 46  1  0
 46 47  1  0
 46 48  1  0
 46 49  1  0
 41 50  1  0
 50 51  1  6
 51 52  1  0
 52 53  1  0
 53 54  1  0
 53 55  2  0
 55 56  1  0
 56 57  1  6
 58 57  1  1
 58 59  1  0
 59 60  1  0
 60 61  1  0
 60 62  1  0
 60 63  1  0
 63 64  1  0
 63 65  1  0
 63 66  1  0
 58 67  1  0
 67 68  1  1
 68 69  1  0
 69 70  1  1
 71 70  1  6
 71 72  1  0
 72 73  1  0
 73 74  1  6
 74 75  1  0
 75 76  1  0
 75 77  2  0
 77 78  1  0
 78 79  1  1
 79 80  1  0
 80 81  2  0
 81 82  1  0
 82 83  1  6
 84 83  1  1
 84 85  1  0
 85 86  1  0
 86 87  1  0
 87 88  1  0
 88 89  1  6
 89 90  1  0
 90 91  1  0
 90 92  1  0
 90 93  1  0
 93 94  1  0
 93 95  1  0
 93 96  1  0
 88 97  1  0
 97 98  1  6
 98 99  1  0
 99100  1  0
 99101  1  0
 99102  1  0
102103  1  0
102104  1  0
102105  1  0
 82106  1  0
106107  1  0
107108  1  0
107109  1  0
107110  1  0
110111  1  0
110112  1  0
110113  1  0
 78114  1  0
114115  1  0
115116  1  0
115117  1  0
115118  1  0
118119  1  0
118120  1  0
118121  1  0
 73122  1  0
122123  1  0
123124  1  1
124125  1  0
125126  1  0
125127  1  0
125128  1  0
128129  1  0
128130  1  0
128131  1  0
123132  1  0
132133  1  1
133134  1  0
134135  1  0
134136  1  0
134137  1  0
137138  1  0
137139  1  0
137140  1  0
 69141  1  0
141142  1  0
142143  1  1
143144  1  0
144145  1  0
144146  1  0
144147  1  0
147148  1  0
147149  1  0
147150  1  0
 56151  1  0
151152  1  0
152153  1  0
152154  1  0
152155  1  0
155156  1  0
155157  1  0
155158  1  0
 50159  1  0
159160  1  0
160161  1  0
160162  1  0
160163  1  0
163164  1  0
163165  1  0
163166  1  0
 40167  1  6
 16168  1  0
168169  1  0
169170  1  1
170171  1  0
171172  1  0
171173  1  0
171174  1  0
174175  1  0
174176  1  0
174177  1  0
  9178  1  0
178179  1  0
179180  1  6
180181  1  0
181182  1  0
181183  1  0
181184  1  0
184185  1  0
184186  1  0
184187  1  0
179  7  1  0
169 14  1  0
167 20  1  0
142 67  1  0
132 71  1  0
 97 84  1  0
M  END
$$$$
40
     RDKit          2D

193199  0  0  0  0  0  0  0  0999 V2000
   -6.6917   -9.4533    0.0000 C   0  0  0  0  0  0  0  0  0  0  0  0
   -5.4782  -10.3350    0.0000 C   0  0  0  0  0  0  0  0  0  0  0  0
   -4.1079   -9.7249    0.0000 C   0  0  0  0  0  0  0  0  0  0  0  0
   -3.9511   -8.2331    0.0000 C   0  0  0  0  0  0  0  0  0  0  0  0
   -2.5808   -7.6230    0.0000 C   0  0  0  0  0  0  0  0  0  0  0  0
   -1.3672   -8.5047    0.0000 C   0  0  0  0  0  0  0  0  0  0  0  0
   -1.5240   -9.9965    0.0000 O   0  0  0  0  0  0  0  0  0  0  0  0
   -2.8943  -10.6066    0.0000 Si  0  0  0  0  0  4  0  0  0  0  0  0
   -2.2842  -11.9769    0.0000 C   0  0  0  0  0  0  0  0  0  0  0  0
   -3.5045   -9.2363    0.0000 C   0  0  0  0  0  0  0  0  0  0  0  0
   -4.2647  -11.2167    0.0000 C   0  0  0  0  0  0  0  0  0  0  0  0
   -3.6546  -12.5870    0.0000 C   0  0  0  0  0  0  0  0  0  0  0  0
   -4.8748   -9.8464    0.0000 C   0  0  0  0  0  0  0  0  0  0  0  0
   -4.8928  -11.7075    0.0000 C   0  0  0  0  0  0  0  0  0  0  0  0
    0.0031   -7.8946    0.0000 C   0  0  0  0  0  0  0  0  0  0  0  0
    1.3021   -8.6446    0.0000 O   0  0  0  0  0  0  0  0  0  0  0  0
    2.4168   -7.6409    0.0000 C   0  0  0  0  0  0  0  0  0  0  0  0
    3.8841   -7.9528    0.0000 C   0  0  0  0  0  0  0  0  0  0  0  0
    4.3476   -9.3793    0.0000 C   0  0  0  0  0  0  0  0  0  0  0  0
    5.8148   -9.6912    0.0000 O   0  0  0  0  0  0  0  0  0  0  0  0
    6.2783  -11.1178    0.0000 C   0  0  0  0  0  0  0  0  0  0  0  0
    7.7456  -11.4297    0.0000 C   0  0  0  0  0  0  0  0  0  0  0  0
    8.7492  -10.3149    0.0000 C   0  0  0  0  0  0  0  0  0  0  0  0
    8.2857   -8.8884    0.0000 C   0  0  0  0  0  0  0  0  0  0  0  0
   10.2165  -10.6268    0.0000 C   0  0  0  0  0  0  0  0  0  0  0  0
   11.2202   -9.5121    0.0000 C   0  0  0  0  0  0  0  0  0  0  0  0
   12.6874   -9.8240    0.0000 C   0  0  0  0  0  0  0  0  0  0  0  0
   13.6911   -8.7092    0.0000 C   0  0  0  0  0  0  0  0  0  0  0  0
   15.1583   -9.0211    0.0000 C   0  0  0  0  0  0  0  0  0  0  0  0
   16.1620   -7.9064    0.0000 C   0  0  0  0  0  0  0  0  0  0  0  0
   17.6292   -8.2183    0.0000 C   0  0  0  0  0  0  0  0  0  0  0  0
   18.0927   -9.6449    0.0000 C   0  0  0  0  0  0  0  0  0  0  0  0
   17.0891  -10.7596    0.0000 O   0  0  0  0  0  0  0  0  0  0  0  0
   17.5526  -12.1862    0.0000 C   0  0  0  0  0  0  0  0  0  0  0  0
   19.0198  -12.4980    0.0000 C   0  0  0  0  0  0  0  0  0  0  0  0
   20.0235  -11.3833    0.0000 C   0  0  0  0  0  0  0  0  0  0  0  0
   21.4907  -11.6952    0.0000 O   0  0  0  0  0  0  0  0  0  0  0  0
   21.9542  -13.1218    0.0000 Si  0  0  0  0  0  4  0  0  0  0  0  0
   23.3808  -12.6582    0.0000 C   0  0  0  0  0  0  0  0  0  0  0  0
   20.5277  -13.5853    0.0000 C   0  0  0  0  0  0  0  0  0  0  0  0
   22.4178  -14.5483    0.0000 C   0  0  0  0  0  0  0  0  0  0  0  0
   20.9912  -15.0119    0.0000 C   0  0  0  0  0  0  0  0  0  0  0  0
   23.8444  -14.0848    0.0000 C   0  0  0  0  0  0  0  0  0  0  0  0
   22.8813  -15.9749    0.0000 C   0  0  0  0  0  0  0  0  0  0  0  0
   19.5600   -9.9567    0.0000 C   0  0  0  0  0  0  0  0  0  0  0  0
   20.5637   -8.8420    0.0000 O   0  0  0  0  0  0  0  0  0  0  0  0
   22.0309   -9.1539    0.0000 Si  0  0  0  0  0  4  0  0  0  0  0  0
   22.3428   -7.6866    0.0000 C   0  0  0  0  0  0  0  0  0  0  0  0
   21.7190  -10.6211    0.0000 C   0  0  0  0  0  0  0  0  0  0  0  0
   23.4981   -9.4657    0.0000 C   0  0  0  0  0  0  0  0  0  0  0  0
   23.8100   -7.9985    0.0000 C   0  0  0  0  0  0  0  0  0  0  0  0
   23.1862  -10.9330    0.0000 C   0  0  0  0  0  0  0  0  0  0  0  0
   24.9653   -9.7776    0.0000 C   0  0  0  0  0  0  0  0  0  0  0  0
   15.6985   -6.4798    0.0000 O   0  0  0  0  0  0  0  0  0  0  0  0
   16.7022   -5.3651    0.0000 Si  0  0  0  0  0  4  0  0  0  0  0  0
   15.5875   -4.3614    0.0000 C   0  0  0  0  0  0  0  0  0  0  0  0
   17.8169   -6.3688    0.0000 C   0  0  0  0  0  0  0  0  0  0  0  0
   17.7059   -4.2504    0.0000 C   0  0  0  0  0  0  0  0  0  0  0  0
   16.5911   -3.2467    0.0000 C   0  0  0  0  0  0  0  0  0  0  0  0
   18.8206   -5.2541    0.0000 C   0  0  0  0  0  0  0  0  0  0  0  0
   18.7096   -3.1357    0.0000 C   0  0  0  0  0  0  0  0  0  0  0  0
   10.7566   -8.0855    0.0000 O   0  0  0  0  0  0  0  0  0  0  0  0
   11.7603   -6.9708    0.0000 Si  0  0  0  0  0  4  0  0  0  0  0  0
   10.6456   -5.9671    0.0000 C   0  0  0  0  0  0  0  0  0  0  0  0
   12.8751   -7.9745    0.0000 C   0  0  0  0  0  0  0  0  0  0  0  0
   12.7640   -5.8561    0.0000 C   0  0  0  0  0  0  0  0  0  0  0  0
   11.6493   -4.8524    0.0000 C   0  0  0  0  0  0  0  0  0  0  0  0
   13.8787   -6.8598    0.0000 C   0  0  0  0  0  0  0  0  0  0  0  0
   13.7677   -4.7414    0.0000 C   0  0  0  0  0  0  0  0  0  0  0  0
    5.2746  -12.2325    0.0000 C   0  0  0  0  0  0  0  0  0  0  0  0
    3.8074  -11.9206    0.0000 C   0  0  0  0  0  0  0  0  0  0  0  0
    2.8037  -13.0354    0.0000 O   0  0  0  0  0  0  0  0  0  0  0  0
    3.2672  -14.4619    0.0000 Si  0  0  0  0  0  4  0  0  0  0  0  0
    1.8407  -14.9255    0.0000 C   0  0  0  0  0  0  0  0  0  0  0  0
    4.6938  -13.9984    0.0000 C   0  0  0  0  0  0  0  0  0  0  0  0
    3.7308  -15.8885    0.0000 C   0  0  0  0  0  0  0  0  0  0  0  0
    5.1574  -15.4250    0.0000 C   0  0  0  0  0  0  0  0  0  0  0  0
    2.3042  -16.3521    0.0000 C   0  0  0  0  0  0  0  0  0  0  0  0
    4.1943  -17.3151    0.0000 C   0  0  0  0  0  0  0  0  0  0  0  0
    3.3439  -10.4941    0.0000 C   0  0  0  0  0  0  0  0  0  0  0  0
    1.8767  -10.1822    0.0000 O   0  0  0  0  0  0  0  0  0  0  0  0
    0.8730  -11.2969    0.0000 Si  0  0  0  0  0  4  0  0  0  0  0  0
   -0.2417  -10.2932    0.0000 C   0  0  0  0  0  0  0  0  0  0  0  0
    1.9877  -12.3006    0.0000 C   0  0  0  0  0  0  0  0  0  0  0  0
   -0.1307  -12.4116    0.0000 C   0  0  0  0  0  0  0  0  0  0  0  0
   -1.2454  -11.4079    0.0000 C   0  0  0  0  0  0  0  0  0  0  0  0
    0.9840  -13.4153    0.0000 C   0  0  0  0  0  0  0  0  0  0  0  0
   -1.1344  -13.5263    0.0000 C   0  0  0  0  0  0  0  0  0  0  0  0
    1.8067   -6.2706    0.0000 C   0  0  0  0  0  0  0  0  0  0  0  0
    0.3149   -6.4274    0.0000 C   0  0  0  0  0  0  0  0  0  0  0  0
   -0.6887   -5.3127    0.0000 O   0  0  0  0  0  0  0  0  0  0  0  0
   -0.2252   -3.8861    0.0000 Si  0  0  0  0  0  4  0  0  0  0  0  0
   -1.6518   -3.4225    0.0000 C   0  0  0  0  0  0  0  0  0  0  0  0
    1.2014   -4.3496    0.0000 C   0  0  0  0  0  0  0  0  0  0  0  0
    0.2383   -2.4595    0.0000 C   0  0  0  0  0  0  0  0  0  0  0  0
    1.6649   -2.9230    0.0000 C   0  0  0  0  0  0  0  0  0  0  0  0
   -1.1883   -1.9960    0.0000 C   0  0  0  0  0  0  0  0  0  0  0  0
    0.7018   -1.0329    0.0000 C   0  0  0  0  0  0  0  0  0  0  0  0
   -5.1646   -7.3514    0.0000 O   0  0  0  0  0  0  0  0  0  0  0  0
   -6.5349   -7.9615    0.0000 Si  0  0  0  0  0  4  0  0  0  0  0  0
   -7.1450   -6.5912    0.0000 C   0  0  0  0  0  0  0  0  0  0  0  0
   -5.9248   -9.3319    0.0000 C   0  0  0  0  0  0  0  0  0  0  0  0
   -7.9052   -8.5717    0.0000 C   0  0  0  0  0  0  0  0  0  0  0  0
   -7.2951   -9.9420    0.0000 C   0  0  0  0  0  0  0  0  0  0  0  0
   -8.5153   -7.2013    0.0000 C   0  0  0  0  0  0  0  0  0  0  0  0
   -8.9510   -8.8913    0.0000 C   0  0  0  0  0  0  0  0  0  0  0  0
   -5.6350  -11.8268    0.0000 C   0  0  0  0  0  0  0  0  0  0  0  0
   -7.0053  -12.4369    0.0000 C   0  0  0  0  0  0  0  0  0  0  0  0
   -7.1621  -13.9287    0.0000 C   0  0  0  0  0  0  0  0  0  0  0  0
   -5.9486  -14.8104    0.0000 O   0  0  0  0  0  0  0  0  0  0  0  0
   -6.1054  -16.3021    0.0000 Si  0  0  0  0  0  4  0  0  0  0  0  0
   -4.6958  -16.8152    0.0000 C   0  0  0  0  0  0  0  0  0  0  0  0
   -7.5971  -16.1453    0.0000 C   0  0  0  0  0  0  0  0  0  0  0  0
   -6.2622  -17.7939    0.0000 C   0  0  0  0  0  0  0  0  0  0  0  0
   -4.8526  -18.3070    0.0000 C   0  0  0  0  0  0  0  0  0  0  0  0
   -7.7539  -17.6371    0.0000 C   0  0  0  0  0  0  0  0  0  0  0  0
   -6.1512  -18.5833    0.0000 C   0  0  0  0  0  0  0  0  0  0  0  0
   -8.5324  -14.5388    0.0000 C   0  0  0  0  0  0  0  0  0  0  0  0
   -9.7459  -13.6571    0.0000 O   0  0  0  0  0  0  0  0  0  0  0  0
   -9.5891  -12.1653    0.0000 Si  0  0  0  0  0  4  0  0  0  0  0  0
  -11.0809  -12.0085    0.0000 C   0  0  0  0  0  0  0  0  0  0  0  0
   -8.0974  -12.3221    0.0000 C   0  0  0  0  0  0  0  0  0  0  0  0
   -9.4324  -10.6735    0.0000 C   0  0  0  0  0  0  0  0  0  0  0  0
  -10.9241  -10.5167    0.0000 C   0  0  0  0  0  0  0  0  0  0  0  0
   -7.9406  -10.8303    0.0000 C   0  0  0  0  0  0  0  0  0  0  0  0
   -9.4515   -9.5802    0.0000 C   0  0  0  0  0  0  0  0  0  0  0  0
   -8.6892  -16.0306    0.0000 C   0  0  0  0  0  0  0  0  0  0  0  0
  -10.0595  -16.6407    0.0000 O   0  0  0  0  0  0  0  0  0  0  0  0
  -10.2163  -18.1325    0.0000 C   0  0  0  0  0  0  0  0  0  0  0  0
  -11.5866  -18.7426    0.0000 C   0  0  0  0  0  0  0  0  0  0  0  0
  -11.7434  -20.2343    0.0000 O   0  0  0  0  0  0  0  0  0  0  0  0
  -12.8002  -17.8609    0.0000 C   0  0  0  0  0  0  0  0  0  0  0  0
  -14.1705  -18.4710    0.0000 C   0  0  0  0  0  0  0  0  0  0  0  0
  -14.4823  -19.9382    0.0000 C   0  0  0  0  0  0  0  0  0  0  0  0
  -15.9741  -20.0950    0.0000 C   0  0  0  0  0  0  0  0  0  0  0  0
  -16.7241  -21.3940    0.0000 O   0  0  0  0  0  0  0  0  0  0  0  0
  -18.2241  -21.3940    0.0000 Si  0  0  0  0  0  4  0  0  0  0  0  0
  -18.2241  -22.8940    0.0000 C   0  0  0  0  0  0  0  0  0  0  0  0
  -18.2241  -19.8940    0.0000 C   0  0  0  0  0  0  0  0  0  0  0  0
  -19.7241  -21.3940    0.0000 C   0  0  0  0  0  0  0  0  0  0  0  0
  -19.7241  -19.8940    0.0000 C   0  0  0  0  0  0  0  0  0  0  0  0
  -19.7241  -22.8940    0.0000 C   0  0  0  0  0  0  0  0  0  0  0  0
  -21.2241  -21.3940    0.0000 C   0  0  0  0  0  0  0  0  0  0  0  0
  -16.5842  -18.7247    0.0000 C   0  0  0  0  0  0  0  0  0  0  0  0
  -18.0515  -18.4128    0.0000 C   0  0  0  0  0  0  0  0  0  0  0  0
  -18.5150  -16.9862    0.0000 C   0  0  0  0  0  0  0  0  0  0  0  0
  -19.9822  -16.6744    0.0000 C   0  0  0  0  0  0  0  0  0  0  0  0
  -20.4457  -15.2478    0.0000 C   0  0  0  0  0  0  0  0  0  0  0  0
  -21.9129  -14.9359    0.0000 C   0  0  0  0  0  0  0  0  0  0  0  0
  -23.0277  -15.9396    0.0000 C   0  0  0  0  0  0  0  0  0  0  0  0
  -24.3267  -15.1896    0.0000 C   0  0  0  0  0  0  0  0  0  0  0  0
  -25.6970  -15.7997    0.0000 O   0  0  0  0  0  0  0  0  0  0  0  0
  -26.9105  -14.9180    0.0000 Si  0  0  0  0  0  4  0  0  0  0  0  0
  -27.7922  -16.1316    0.0000 C   0  0  0  0  0  0  0  0  0  0  0  0
  -26.0289  -13.7045    0.0000 C   0  0  0  0  0  0  0  0  0  0  0  0
  -28.1241  -14.0364    0.0000 C   0  0  0  0  0  0  0  0  0  0  0  0
  -27.2424  -12.8228    0.0000 C   0  0  0  0  0  0  0  0  0  0  0  0
  -29.0058  -15.2499    0.0000 C   0  0  0  0  0  0  0  0  0  0  0  0
  -29.3376  -13.1547    0.0000 C   0  0  0  0  0  0  0  0  0  0  0  0
  -24.0148  -13.7224    0.0000 C   0  0  0  0  0  0  0  0  0  0  0  0
  -25.0185  -12.6077    0.0000 C   0  0  0  0  0  0  0  0  0  0  0  0
  -24.5550  -11.1811    0.0000 C   0  0  0  0  0  0  0  0  0  0  0  0
  -25.5587  -10.0664    0.0000 C   0  0  0  0  0  0  0  0  0  0  0  0
  -25.0952   -8.6398    0.0000 O   0  0  0  0  0  0  0  0  0  0  0  0
  -27.0259  -10.3782    0.0000 S   0  0  0  0  0  0  0  0  0  0  0  0
  -28.0296   -9.2635    0.0000 C   0  0  0  0  0  0  0  0  0  0  0  0
  -27.5661   -7.8369    0.0000 C   0  0  0  0  0  0  0  0  0  0  0  0
  -28.5698   -6.7222    0.0000 C   0  0  0  0  0  0  0  0  0  0  0  0
  -30.0370   -7.0341    0.0000 C   0  0  0  0  0  0  0  0  0  0  0  0
  -31.0407   -5.9194    0.0000 C   0  0  0  0  0  0  0  0  0  0  0  0
  -30.5005   -8.4607    0.0000 C   0  0  0  0  0  0  0  0  0  0  0  0
  -29.4968   -9.5754    0.0000 C   0  0  0  0  0  0  0  0  0  0  0  0
  -22.5231  -13.5656    0.0000 O   0  0  0  0  0  0  0  0  0  0  0  0
  -15.4695  -17.7210    0.0000 O   0  0  0  0  0  0  0  0  0  0  0  0
   -9.0028  -19.0141    0.0000 C   0  0  0  0  0  0  0  0  0  0  0  0
   -7.6325  -18.4040    0.0000 C   0  0  0  0  0  0  0  0  0  0  0  0
   -6.4189  -19.2857    0.0000 O   0  0  0  0  0  0  0  0  0  0  0  0
   -6.5757  -20.7775    0.0000 Si  0  0  0  0  0  4  0  0  0  0  0  0
   -5.0840  -20.9343    0.0000 C   0  0  0  0  0  0  0  0  0  0  0  0
   -8.0675  -20.6207    0.0000 C   0  0  0  0  0  0  0  0  0  0  0  0
   -6.7325  -22.2693    0.0000 C   0  0  0  0  0  0  0  0  0  0  0  0
   -8.2243  -22.1125    0.0000 C   0  0  0  0  0  0  0  0  0  0  0  0
   -5.2407  -22.4261    0.0000 C   0  0  0  0  0  0  0  0  0  0  0  0
   -6.8893  -23.7611    0.0000 C   0  0  0  0  0  0  0  0  0  0  0  0
   -7.4757  -16.9122    0.0000 C   0  0  0  0  0  0  0  0  0  0  0  0
   -6.1054  -16.3021    0.0000 O   0  0  0  0  0  0  0  0  0  0  0  0
   -4.8918  -17.1838    0.0000 Si  0  0  0  0  0  4  0  0  0  0  0  0
   -4.0102  -15.9703    0.0000 C   0  0  0  0  0  0  0  0  0  0  0  0
   -5.7735  -18.3973    0.0000 C   0  0  0  0  0  0  0  0  0  0  0  0
   -3.6783  -18.0655    0.0000 C   0  0  0  0  0  0  0  0  0  0  0  0
   -2.7966  -16.8520    0.0000 C   0  0  0  0  0  0  0  0  0  0  0  0
   -4.5600  -19.2790    0.0000 C   0  0  0  0  0  0  0  0  0  0  0  0
   -2.4648  -18.9472    0.0000 C   0  0  0  0  0  0  0  0  0  0  0  0
  1  2  1  0
  2  3  2  0
  3  4  1  0
  4  5  1  6
  6  5  1  6
  6  7  1  0
  7  8  1  0
  8  9  1  0
  8 10  1  0
  8 11  1  0
 11 12  1  0
 11 13  1  0
 11 14  1  0
  6 15  1  0
 15 16  1  6
 16 17  1  0
 17 18  1  6
 19 18  1  1
 19 20  1  0
 20 21  1  0
 21 22  1  1
 22 23  1  0
 23 24  1  0
 23 25  2  0
 25 26  1  0
 26 27  1  6
 27 28  1  0
 28 29  2  0
 29 30  1  0
 30 31  1  1
 32 31  1  6
 32 33  1  0
 33 34  1  0
 34 35  1  0
 35 36  1  0
 36 37  1  1
 37 38  1  0
 38 39  1  0
 38 40  1  0
 38 41  1  0
 41 42  1  0
 41 43  1  0
 41 44  1  0
 36 45  1  0
 45 46  1  1
 46 47  1  0
 47 48  1  0
 47 49  1  0
 47 50  1  0
 50 51  1  0
 50 52  1  0
 50 53  1  0
 30 54  1  0
 54 55  1  0
 55 56  1  0
 55 57  1  0
 55 58  1  0
 58 59  1  0
 58 60  1  0
 58 61  1  0
 26 62  1  0
 62 63  1  0
 63 64  1  0
 63 65  1  0
 63 66  1  0
 66 67  1  0
 66 68  1  0
 66 69  1  0
 21 70  1  0
 70 71  1  0
 71 72  1  6
 72 73  1  0
 73 74  1  0
 73 75  1  0
 73 76  1  0
 76 77  1  0
 76 78  1  0
 76 79  1  0
 71 80  1  0
 80 81  1  6
 81 82  1  0
 82 83  1  0
 82 84  1  0
 82 85  1  0
 85 86  1  0
 85 87  1  0
 85 88  1  0
 17 89  1  0
 89 90  1  0
 90 91  1  6
 91 92  1  0
 92 93  1  0
 92 94  1  0
 92 95  1  0
 95 96  1  0
 95 97  1  0
 95 98  1  0
  4 99  1  0
 99100  1  0
100101  1  0
100102  1  0
100103  1  0
103104  1  0
103105  1  0
103106  1  0
  2107  1  0
107108  1  0
109108  1  6
109110  1  0
110111  1  0
111112  1  0
111113  1  0
111114  1  0
114115  1  0
114116  1  0
114117  1  0
109118  1  0
118119  1  6
119120  1  0
120121  1  0
120122  1  0
120123  1  0
123124  1  0
123125  1  0
123126  1  0
118127  1  0
127128  1  6
128129  1  0
129130  1  0
130131  1  1
130132  1  0
133132  1  1
133134  1  0
134135  1  0
135136  1  1
136137  1  0
137138  1  0
137139  1  0
137140  1  0
140141  1  0
140142  1  0
140143  1  0
135144  1  0
144145  1  1
145146  1  0
146147  1  0
147148  1  0
149148  1  1
149150  1  0
150151  1  0
151152  1  1
152153  1  0
153154  1  0
153155  1  0
153156  1  0
156157  1  0
156158  1  0
156159  1  0
151160  1  0
160161  1  1
161162  1  0
162163  1  0
163164  2  0
163165  1  0
165166  1  0
166167  1  0
167168  2  0
168169  1  0
169170  1  0
169171  2  0
171172  1  0
160173  1  0
144174  1  0
129175  1  1
175176  1  0
176177  1  6
177178  1  0
178179  1  0
178180  1  0
178181  1  0
181182  1  0
181183  1  0
181184  1  0
176185  1  0
185186  1  1
186187  1  0
187188  1  0
187189  1  0
187190  1  0
190191  1  0
190192  1  0
190193  1  0
 90 15  1  0
185127  1  0
 80 19  1  0
174133  1  0
 45 32  1  0
173149  1  0
172166  2  0
M  END
$$$$
42
     RDKit          2D

240249  0  0  0  0  0  0  0  0999 V2000
    3.0000    0.0000    0.0000 C   0  0  0  0  0  0  0  0  0  0  0  0
    1.5000   -0.0000    0.0000 C   0  0  0  0  0  0  0  0  0  0  0  0
    0.7500   -1.2990    0.0000 C   0  0  0  0  0  0  0  0  0  0  0  0
   -0.7500   -1.2990    0.0000 C   0  0  0  0  0  0  0  0  0  0  0  0
   -1.5000   -2.5981    0.0000 C   0  0  0  0  0  0  0  0  0  0  0  0
   -3.0000   -2.5981    0.0000 C   0  0  0  0  0  0  0  0  0  0  0  0
   -3.7500   -1.2990    0.0000 O   0  0  0  0  0  0  0  0  0  0  0  0
   -3.7500   -3.8971    0.0000 C   0  0  0  0  0  0  0  0  0  0  0  0
   -5.2500   -3.8971    0.0000 C   0  0  0  0  0  0  0  0  0  0  0  0
   -6.0000   -5.1962    0.0000 C   0  0  0  0  0  0  0  0  0  0  0  0
   -7.5000   -5.1962    0.0000 C   0  0  0  0  0  0  0  0  0  0  0  0
   -8.2500   -3.8971    0.0000 O   0  0  0  0  0  0  0  0  0  0  0  0
   -8.2500   -6.4952    0.0000 C   0  0  0  0  0  0  0  0  0  0  0  0
   -9.7500   -6.4952    0.0000 C   0  0  0  0  0  0  0  0  0  0  0  0
  -10.5000   -7.7942    0.0000 C   0  0  0  0  0  0  0  0  0  0  0  0
   -9.8899   -9.1645    0.0000 O   0  0  0  0  0  0  0  0  0  0  0  0
  -11.0046  -10.1682    0.0000 C   0  0  0  0  0  0  0  0  0  0  0  0
  -10.8478  -11.6600    0.0000 C   0  0  0  0  0  0  0  0  0  0  0  0
  -12.0613  -12.5417    0.0000 C   0  0  0  0  0  0  0  0  0  0  0  0
  -11.9046  -14.0335    0.0000 C   0  0  0  0  0  0  0  0  0  0  0  0
  -13.1181  -14.9152    0.0000 C   0  0  0  0  0  0  0  0  0  0  0  0
  -12.9613  -16.4069    0.0000 C   0  0  0  0  0  0  0  0  0  0  0  0
  -11.6622  -17.1569    0.0000 O   0  0  0  0  0  0  0  0  0  0  0  0
  -11.9741  -18.6242    0.0000 C   0  0  0  0  0  0  0  0  0  0  0  0
  -10.9704  -19.7389    0.0000 C   0  0  0  0  0  0  0  0  0  0  0  0
  -11.4339  -21.1655    0.0000 C   0  0  0  0  0  0  0  0  0  0  0  0
  -12.9012  -21.4773    0.0000 O   0  0  0  0  0  0  0  0  0  0  0  0
  -10.4302  -22.2802    0.0000 C   0  0  0  0  0  0  0  0  0  0  0  0
  -10.8938  -23.7068    0.0000 C   0  0  0  0  0  0  0  0  0  0  0  0
   -9.8901  -24.8215    0.0000 C   0  0  0  0  0  0  0  0  0  0  0  0
  -10.3536  -26.2481    0.0000 O   0  0  0  0  0  0  0  0  0  0  0  0
  -11.8208  -26.5599    0.0000 Si  0  0  0  0  0  4  0  0  0  0  0  0
  -11.5090  -28.0272    0.0000 C   0  0  0  0  0  0  0  0  0  0  0  0
  -12.1327  -25.0927    0.0000 C   0  0  0  0  0  0  0  0  0  0  0  0
  -13.2880  -26.8718    0.0000 C   0  0  0  0  0  0  0  0  0  0  0  0
  -13.5999  -25.4046    0.0000 C   0  0  0  0  0  0  0  0  0  0  0  0
  -12.9762  -28.3390    0.0000 C   0  0  0  0  0  0  0  0  0  0  0  0
  -14.7553  -27.1837    0.0000 C   0  0  0  0  0  0  0  0  0  0  0  0
   -8.4229  -24.5096    0.0000 C   0  0  0  0  0  0  0  0  0  0  0  0
   -7.4192  -25.6243    0.0000 O   0  0  0  0  0  0  0  0  0  0  0  0
   -7.8827  -27.0509    0.0000 Si  0  0  0  0  0  4  0  0  0  0  0  0
   -6.4561  -27.5144    0.0000 C   0  0  0  0  0  0  0  0  0  0  0  0
   -9.3093  -26.5874    0.0000 C   0  0  0  0  0  0  0  0  0  0  0  0
   -8.3462  -28.4775    0.0000 C   0  0  0  0  0  0  0  0  0  0  0  0
   -6.9196  -28.9410    0.0000 C   0  0  0  0  0  0  0  0  0  0  0  0
   -9.7728  -28.0140    0.0000 C   0  0  0  0  0  0  0  0  0  0  0  0
   -8.8097  -29.9041    0.0000 C   0  0  0  0  0  0  0  0  0  0  0  0
   -7.9593  -23.0830    0.0000 C   0  0  0  0  0  0  0  0  0  0  0  0
   -6.4921  -22.7712    0.0000 C   0  0  0  0  0  0  0  0  0  0  0  0
   -5.4884  -23.8859    0.0000 O   0  0  0  0  0  0  0  0  0  0  0  0
   -4.0212  -23.5740    0.0000 Si  0  0  0  0  0  4  0  0  0  0  0  0
   -3.7093  -25.0412    0.0000 C   0  0  0  0  0  0  0  0  0  0  0  0
   -4.3331  -22.1068    0.0000 C   0  0  0  0  0  0  0  0  0  0  0  0
   -2.5540  -23.2622    0.0000 C   0  0  0  0  0  0  0  0  0  0  0  0
   -2.8658  -21.7949    0.0000 C   0  0  0  0  0  0  0  0  0  0  0  0
   -2.2421  -24.7294    0.0000 C   0  0  0  0  0  0  0  0  0  0  0  0
   -1.0867  -22.9503    0.0000 C   0  0  0  0  0  0  0  0  0  0  0  0
   -6.0286  -21.3446    0.0000 C   0  0  0  0  0  0  0  0  0  0  0  0
   -4.5614  -21.0327    0.0000 C   0  0  0  0  0  0  0  0  0  0  0  0
   -4.0978  -19.6061    0.0000 C   0  0  0  0  0  0  0  0  0  0  0  0
   -2.6306  -19.2943    0.0000 C   0  0  0  0  0  0  0  0  0  0  0  0
   -1.6269  -20.4090    0.0000 C   0  0  0  0  0  0  0  0  0  0  0  0
   -2.1671  -17.8677    0.0000 C   0  0  0  0  0  0  0  0  0  0  0  0
   -0.6999  -17.5558    0.0000 C   0  0  0  0  0  0  0  0  0  0  0  0
   -0.2363  -16.1292    0.0000 C   0  0  0  0  0  0  0  0  0  0  0  0
    1.2309  -15.8174    0.0000 C   0  0  0  0  0  0  0  0  0  0  0  0
    2.2346  -16.9321    0.0000 O   0  0  0  0  0  0  0  0  0  0  0  0
    3.7018  -16.6202    0.0000 Si  0  0  0  0  0  4  0  0  0  0  0  0
    4.0137  -18.0874    0.0000 C   0  0  0  0  0  0  0  0  0  0  0  0
    3.3899  -15.1530    0.0000 C   0  0  0  0  0  0  0  0  0  0  0  0
    5.1690  -16.3083    0.0000 C   0  0  0  0  0  0  0  0  0  0  0  0
    5.2162  -14.9592    0.0000 C   0  0  0  0  0  0  0  0  0  0  0  0
    5.4809  -17.7756    0.0000 C   0  0  0  0  0  0  0  0  0  0  0  0
    6.6633  -16.1776    0.0000 C   0  0  0  0  0  0  0  0  0  0  0  0
    1.6944  -14.3908    0.0000 C   0  0  0  0  0  0  0  0  0  0  0  0
    0.8127  -13.1773    0.0000 O   0  0  0  0  0  0  0  0  0  0  0  0
    1.6944  -11.9637    0.0000 C   0  0  0  0  0  0  0  0  0  0  0  0
    1.2309  -10.5371    0.0000 C   0  0  0  0  0  0  0  0  0  0  0  0
    2.2346   -9.4224    0.0000 C   0  0  0  0  0  0  0  0  0  0  0  0
    3.7018   -9.7343    0.0000 O   0  0  0  0  0  0  0  0  0  0  0  0
    4.7055   -8.6196    0.0000 C   0  0  0  0  0  0  0  0  0  0  0  0
    6.1727   -8.9314    0.0000 C   0  0  0  0  0  0  0  0  0  0  0  0
    7.1764   -7.8167    0.0000 C   0  0  0  0  0  0  0  0  0  0  0  0
    6.7129   -6.3901    0.0000 C   0  0  0  0  0  0  0  0  0  0  0  0
    8.6436   -8.1286    0.0000 C   0  0  0  0  0  0  0  0  0  0  0  0
    9.6473   -7.0139    0.0000 C   0  0  0  0  0  0  0  0  0  0  0  0
   11.1145   -7.3257    0.0000 C   0  0  0  0  0  0  0  0  0  0  0  0
   12.1182   -6.2110    0.0000 C   0  0  0  0  0  0  0  0  0  0  0  0
   13.5855   -6.5229    0.0000 C   0  0  0  0  0  0  0  0  0  0  0  0
   14.5892   -5.4082    0.0000 C   0  0  0  0  0  0  0  0  0  0  0  0
   16.0564   -5.7200    0.0000 C   0  0  0  0  0  0  0  0  0  0  0  0
   16.5199   -7.1466    0.0000 C   0  0  0  0  0  0  0  0  0  0  0  0
   15.5162   -8.2613    0.0000 O   0  0  0  0  0  0  0  0  0  0  0  0
   15.9797   -9.6879    0.0000 C   0  0  0  0  0  0  0  0  0  0  0  0
   17.4470   -9.9998    0.0000 C   0  0  0  0  0  0  0  0  0  0  0  0
   18.4507   -8.8851    0.0000 C   0  0  0  0  0  0  0  0  0  0  0  0
   19.9179   -9.1969    0.0000 O   0  0  0  0  0  0  0  0  0  0  0  0
   20.3814  -10.6235    0.0000 Si  0  0  0  0  0  4  0  0  0  0  0  0
   21.8080  -10.1600    0.0000 C   0  0  0  0  0  0  0  0  0  0  0  0
   18.9548  -11.0871    0.0000 C   0  0  0  0  0  0  0  0  0  0  0  0
   20.8449  -12.0501    0.0000 C   0  0  0  0  0  0  0  0  0  0  0  0
   19.4183  -12.5136    0.0000 C   0  0  0  0  0  0  0  0  0  0  0  0
   22.2715  -11.5866    0.0000 C   0  0  0  0  0  0  0  0  0  0  0  0
   21.3085  -13.4767    0.0000 C   0  0  0  0  0  0  0  0  0  0  0  0
   17.9871   -7.4585    0.0000 C   0  0  0  0  0  0  0  0  0  0  0  0
   18.9908   -6.3438    0.0000 O   0  0  0  0  0  0  0  0  0  0  0  0
   20.4580   -6.6556    0.0000 Si  0  0  0  0  0  4  0  0  0  0  0  0
   20.7699   -5.1884    0.0000 C   0  0  0  0  0  0  0  0  0  0  0  0
   20.1462   -8.1229    0.0000 C   0  0  0  0  0  0  0  0  0  0  0  0
   21.9253   -6.9675    0.0000 C   0  0  0  0  0  0  0  0  0  0  0  0
   22.2371   -5.5003    0.0000 C   0  0  0  0  0  0  0  0  0  0  0  0
   21.6134   -8.4347    0.0000 C   0  0  0  0  0  0  0  0  0  0  0  0
   23.3925   -7.2794    0.0000 C   0  0  0  0  0  0  0  0  0  0  0  0
   14.1256   -3.9816    0.0000 O   0  0  0  0  0  0  0  0  0  0  0  0
   15.1293   -2.8669    0.0000 Si  0  0  0  0  0  4  0  0  0  0  0  0
   14.0146   -1.8632    0.0000 C   0  0  0  0  0  0  0  0  0  0  0  0
   16.2440   -3.8706    0.0000 C   0  0  0  0  0  0  0  0  0  0  0  0
   16.1330   -1.7522    0.0000 C   0  0  0  0  0  0  0  0  0  0  0  0
   15.0183   -0.7485    0.0000 C   0  0  0  0  0  0  0  0  0  0  0  0
   17.2477   -2.7559    0.0000 C   0  0  0  0  0  0  0  0  0  0  0  0
   17.1367   -0.6374    0.0000 C   0  0  0  0  0  0  0  0  0  0  0  0
    9.1838   -5.5873    0.0000 O   0  0  0  0  0  0  0  0  0  0  0  0
   10.1875   -4.4726    0.0000 Si  0  0  0  0  0  4  0  0  0  0  0  0
    9.0728   -3.4689    0.0000 C   0  0  0  0  0  0  0  0  0  0  0  0
   11.3022   -5.4763    0.0000 C   0  0  0  0  0  0  0  0  0  0  0  0
   11.1912   -3.3579    0.0000 C   0  0  0  0  0  0  0  0  0  0  0  0
   10.0765   -2.3542    0.0000 C   0  0  0  0  0  0  0  0  0  0  0  0
   12.3059   -4.3616    0.0000 C   0  0  0  0  0  0  0  0  0  0  0  0
   12.1949   -2.2431    0.0000 C   0  0  0  0  0  0  0  0  0  0  0  0
    4.2420   -7.1930    0.0000 C   0  0  0  0  0  0  0  0  0  0  0  0
    2.7747   -6.8811    0.0000 C   0  0  0  0  0  0  0  0  0  0  0  0
    2.3112   -5.4545    0.0000 O   0  0  0  0  0  0  0  0  0  0  0  0
    3.3149   -4.3398    0.0000 Si  0  0  0  0  0  4  0  0  0  0  0  0
    2.2002   -3.3361    0.0000 C   0  0  0  0  0  0  0  0  0  0  0  0
    4.4296   -5.3435    0.0000 C   0  0  0  0  0  0  0  0  0  0  0  0
    4.3186   -3.2251    0.0000 C   0  0  0  0  0  0  0  0  0  0  0  0
    5.4333   -4.2288    0.0000 C   0  0  0  0  0  0  0  0  0  0  0  0
    3.2039   -2.2214    0.0000 C   0  0  0  0  0  0  0  0  0  0  0  0
    5.3223   -2.1104    0.0000 C   0  0  0  0  0  0  0  0  0  0  0  0
    1.7710   -7.9958    0.0000 C   0  0  0  0  0  0  0  0  0  0  0  0
    0.3038   -7.6840    0.0000 O   0  0  0  0  0  0  0  0  0  0  0  0
   -0.1597   -6.2574    0.0000 Si  0  0  0  0  0  4  0  0  0  0  0  0
   -1.5863   -6.7209    0.0000 C   0  0  0  0  0  0  0  0  0  0  0  0
    1.2669   -5.7939    0.0000 C   0  0  0  0  0  0  0  0  0  0  0  0
   -0.6232   -4.8308    0.0000 C   0  0  0  0  0  0  0  0  0  0  0  0
    0.8034   -4.3673    0.0000 C   0  0  0  0  0  0  0  0  0  0  0  0
   -2.0498   -5.2943    0.0000 C   0  0  0  0  0  0  0  0  0  0  0  0
   -1.0867   -3.4042    0.0000 C   0  0  0  0  0  0  0  0  0  0  0  0
    3.1210  -12.4273    0.0000 C   0  0  0  0  0  0  0  0  0  0  0  0
    3.1210  -13.9273    0.0000 C   0  0  0  0  0  0  0  0  0  0  0  0
    4.3345  -14.8089    0.0000 O   0  0  0  0  0  0  0  0  0  0  0  0
    5.7048  -14.1988    0.0000 Si  0  0  0  0  0  4  0  0  0  0  0  0
    6.4774  -15.4846    0.0000 C   0  0  0  0  0  0  0  0  0  0  0  0
    5.0947  -12.8285    0.0000 C   0  0  0  0  0  0  0  0  0  0  0  0
    7.0752  -13.5887    0.0000 C   0  0  0  0  0  0  0  0  0  0  0  0
    6.4650  -12.2184    0.0000 C   0  0  0  0  0  0  0  0  0  0  0  0
    7.6853  -14.9590    0.0000 C   0  0  0  0  0  0  0  0  0  0  0  0
    8.4455  -12.9786    0.0000 C   0  0  0  0  0  0  0  0  0  0  0  0
    0.3038  -18.6705    0.0000 O   0  0  0  0  0  0  0  0  0  0  0  0
    1.7710  -18.3587    0.0000 Si  0  0  0  0  0  4  0  0  0  0  0  0
    2.0829  -19.8259    0.0000 C   0  0  0  0  0  0  0  0  0  0  0  0
    1.7989  -17.5620    0.0000 C   0  0  0  0  0  0  0  0  0  0  0  0
    3.2383  -18.0468    0.0000 C   0  0  0  0  0  0  0  0  0  0  0  0
    3.5501  -19.5140    0.0000 C   0  0  0  0  0  0  0  0  0  0  0  0
    3.6519  -16.6049    0.0000 C   0  0  0  0  0  0  0  0  0  0  0  0
    4.7055  -17.7349    0.0000 C   0  0  0  0  0  0  0  0  0  0  0  0
   -7.0323  -20.2299    0.0000 O   0  0  0  0  0  0  0  0  0  0  0  0
   -6.5688  -18.8033    0.0000 Si  0  0  0  0  0  4  0  0  0  0  0  0
   -7.9953  -18.3398    0.0000 C   0  0  0  0  0  0  0  0  0  0  0  0
   -5.1422  -19.2668    0.0000 C   0  0  0  0  0  0  0  0  0  0  0  0
   -6.1052  -17.3767    0.0000 C   0  0  0  0  0  0  0  0  0  0  0  0
   -4.6786  -17.8402    0.0000 C   0  0  0  0  0  0  0  0  0  0  0  0
   -7.5318  -16.9132    0.0000 C   0  0  0  0  0  0  0  0  0  0  0  0
   -5.6417  -15.9501    0.0000 C   0  0  0  0  0  0  0  0  0  0  0  0
   -8.9630  -21.9683    0.0000 O   0  0  0  0  0  0  0  0  0  0  0  0
  -13.4659  -18.7810    0.0000 C   0  0  0  0  0  0  0  0  0  0  0  0
  -14.0760  -17.4106    0.0000 C   0  0  0  0  0  0  0  0  0  0  0  0
  -15.5432  -17.0988    0.0000 O   0  0  0  0  0  0  0  0  0  0  0  0
  -16.5469  -18.2135    0.0000 Si  0  0  0  0  0  4  0  0  0  0  0  0
  -17.6616  -17.2098    0.0000 C   0  0  0  0  0  0  0  0  0  0  0  0
  -15.4322  -19.2172    0.0000 C   0  0  0  0  0  0  0  0  0  0  0  0
  -17.5506  -19.3282    0.0000 C   0  0  0  0  0  0  0  0  0  0  0  0
  -16.4359  -20.3319    0.0000 C   0  0  0  0  0  0  0  0  0  0  0  0
  -18.6653  -18.3245    0.0000 C   0  0  0  0  0  0  0  0  0  0  0  0
  -18.5543  -20.4429    0.0000 C   0  0  0  0  0  0  0  0  0  0  0  0
  -12.3037   -9.4182    0.0000 C   0  0  0  0  0  0  0  0  0  0  0  0
  -11.9918   -7.9510    0.0000 C   0  0  0  0  0  0  0  0  0  0  0  0
  -12.9955   -6.8363    0.0000 O   0  0  0  0  0  0  0  0  0  0  0  0
  -14.4627   -7.1482    0.0000 Si  0  0  0  0  0  4  0  0  0  0  0  0
  -14.7746   -5.6810    0.0000 C   0  0  0  0  0  0  0  0  0  0  0  0
  -14.1508   -8.6154    0.0000 C   0  0  0  0  0  0  0  0  0  0  0  0
  -15.9299   -7.4600    0.0000 C   0  0  0  0  0  0  0  0  0  0  0  0
  -15.6181   -8.9273    0.0000 C   0  0  0  0  0  0  0  0  0  0  0  0
  -16.2418   -5.9928    0.0000 C   0  0  0  0  0  0  0  0  0  0  0  0
  -17.3971   -7.7719    0.0000 C   0  0  0  0  0  0  0  0  0  0  0  0
   -1.5000   -0.0000    0.0000 O   0  0  0  0  0  0  0  0  0  0  0  0
   -0.7500    1.2990    0.0000 C   0  0  0  0  0  0  0  0  0  0  0  0
    0.7500    1.2990    0.0000 C   0  0  0  0  0  0  0  0  0  0  0  0
    0.0000    2.5981    0.0000 C   0  0  0  0  0  0  0  0  0  0  0  0
   -0.7500    3.8971    0.0000 C   0  0  0  0  0  0  0  0  0  0  0  0
    0.0000    5.1962    0.0000 O   0  0  0  0  0  0  0  0  0  0  0  0
    1.5000    5.1962    0.0000 C   0  0  0  0  0  0  0  0  0  0  0  0
    2.2500    3.8971    0.0000 O   0  0  0  0  0  0  0  0  0  0  0  0
    2.2500    6.4952    0.0000 C   0  0  0  0  0  0  0  0  0  0  0  0
    3.7500    6.4952    0.0000 C   0  0  0  0  0  0  0  0  0  0  0  0
    4.5000    7.7942    0.0000 C   0  0  0  0  0  0  0  0  0  0  0  0
    3.7500    9.0933    0.0000 C   0  0  0  0  0  0  0  0  0  0  0  0
    2.2500    9.0933    0.0000 C   0  0  0  0  0  0  0  0  0  0  0  0
    1.5000    7.7942    0.0000 C   0  0  0  0  0  0  0  0  0  0  0  0
   -2.2500    3.8971    0.0000 C   0  0  0  0  0  0  0  0  0  0  0  0
   -3.0000    5.1962    0.0000 O   0  0  0  0  0  0  0  0  0  0  0  0
   -2.2500    6.4952    0.0000 C   0  0  0  0  0  0  0  0  0  0  0  0
   -0.7500    6.4952    0.0000 O   0  0  0  0  0  0  0  0  0  0  0  0
   -3.0000    7.7942    0.0000 C   0  0  0  0  0  0  0  0  0  0  0  0
   -2.2500    9.0933    0.0000 C   0  0  0  0  0  0  0  0  0  0  0  0
   -3.0000   10.3923    0.0000 C   0  0  0  0  0  0  0  0  0  0  0  0
   -4.5000   10.3923    0.0000 C   0  0  0  0  0  0  0  0  0  0  0  0
   -5.2500    9.0933    0.0000 C   0  0  0  0  0  0  0  0  0  0  0  0
   -4.5000    7.7942    0.0000 C   0  0  0  0  0  0  0  0  0  0  0  0
   -3.0000    2.5981    0.0000 C   0  0  0  0  0  0  0  0  0  0  0  0
   -4.5000    2.5981    0.0000 C   0  0  0  0  0  0  0  0  0  0  0  0
   -5.2500    3.8971    0.0000 C   0  0  0  0  0  0  0  0  0  0  0  0
   -6.7500    3.8971    0.0000 C   0  0  0  0  0  0  0  0  0  0  0  0
   -7.5000    5.1962    0.0000 O   0  0  0  0  0  0  0  0  0  0  0  0
   -9.0000    5.1962    0.0000 Si  0  0  0  0  0  4  0  0  0  0  0  0
   -9.0000    6.6962    0.0000 C   0  0  0  0  0  0  0  0  0  0  0  0
   -9.0000    3.6962    0.0000 C   0  0  0  0  0  0  0  0  0  0  0  0
  -10.5000    5.1962    0.0000 C   0  0  0  0  0  0  0  0  0  0  0  0
  -10.5000    3.6962    0.0000 C   0  0  0  0  0  0  0  0  0  0  0  0
  -10.5000    6.6962    0.0000 C   0  0  0  0  0  0  0  0  0  0  0  0
  -12.0000    5.1962    0.0000 C   0  0  0  0  0  0  0  0  0  0  0  0
   -4.5000    5.1962    0.0000 O   0  0  0  0  0  0  0  0  0  0  0  0
   -5.2500    6.4952    0.0000 Si  0  0  0  0  0  4  0  0  0  0  0  0
   -3.9510    7.2452    0.0000 C   0  0  0  0  0  0  0  0  0  0  0  0
   -6.5490    5.7452    0.0000 C   0  0  0  0  0  0  0  0  0  0  0  0
   -6.0000    7.7942    0.0000 C   0  0  0  0  0  0  0  0  0  0  0  0
   -7.2990    7.0442    0.0000 C   0  0  0  0  0  0  0  0  0  0  0  0
   -4.7010    8.5442    0.0000 C   0  0  0  0  0  0  0  0  0  0  0  0
   -6.7500    9.0933    0.0000 C   0  0  0  0  0  0  0  0  0  0  0  0
   -2.2500    1.2990    0.0000 O   0  0  0  0  0  0  0  0  0  0  0  0
  1  2  2  0
  2  3  1  0
  3  4  1  0
  4  5  1  1
  5  6  1  0
  6  7  1  6
  6  8  1  0
  8  9  1  0
  9 10  2  0
 10 11  1  0
 11 12  2  0
 11 13  1  0
 13 14  1  0
 15 14  1  1
 15 16  1  0
 16 17  1  0
 17 18  1  1
 18 19  1  0
 19 20  1  0
 20 21  1  0
 22 21  1  1
 22 23  1  0
 23 24  1  0
 24 25  1  1
 25 26  1  0
 26 27  1  1
 26 28  1  0
 28 29  1  1
 29 30  1  0
 30 31  1  6
 31 32  1  0
 32 33  1  0
 32 34  1  0
 32 35  1  0
 35 36  1  0
 35 37  1  0
 35 38  1  0
 30 39  1  0
 39 40  1  1
 40 41  1  0
 41 42  1  0
 41 43  1  0
 41 44  1  0
 44 45  1  0
 44 46  1  0
 44 47  1  0
 39 48  1  0
 48 49  1  0
 49 50  1  1
 50 51  1  0
 51 52  1  0
 51 53  1  0
 51 54  1  0
 54 55  1  0
 54 56  1  0
 54 57  1  0
 49 58  1  0
 58 59  1  1
 59 60  1  0
 60 61  1  0
 61 62  1  0
 61 63  2  0
 63 64  1  0
 64 65  1  1
 66 65  1  6
 66 67  1  0
 67 68  1  0
 68 69  1  0
 68 70  1  0
 68 71  1  0
 71 72  1  0
 71 73  1  0
 71 74  1  0
 66 75  1  0
 75 76  1  1
 76 77  1  0
 77 78  1  1
 79 78  1  6
 79 80  1  0
 80 81  1  0
 81 82  1  6
 82 83  1  0
 83 84  1  0
 83 85  2  0
 85 86  1  0
 86 87  1  6
 87 88  1  0
 88 89  2  0
 89 90  1  0
 90 91  1  1
 92 91  1  6
 92 93  1  0
 93 94  1  0
 94 95  1  0
 95 96  1  0
 96 97  1  1
 97 98  1  0
 98 99  1  0
 98100  1  0
 98101  1  0
101102  1  0
101103  1  0
101104  1  0
 96105  1  0
105106  1  1
106107  1  0
107108  1  0
107109  1  0
107110  1  0
110111  1  0
110112  1  0
110113  1  0
 90114  1  0
114115  1  0
115116  1  0
115117  1  0
115118  1  0
118119  1  0
118120  1  0
118121  1  0
 86122  1  0
122123  1  0
123124  1  0
123125  1  0
123126  1  0
126127  1  0
126128  1  0
126129  1  0
 81130  1  0
130131  1  0
131132  1  1
132133  1  0
133134  1  0
133135  1  0
133136  1  0
136137  1  0
136138  1  0
136139  1  0
131140  1  0
140141  1  1
141142  1  0
142143  1  0
142144  1  0
142145  1  0
145146  1  0
145147  1  0
145148  1  0
 77149  1  0
149150  1  0
150151  1  1
151152  1  0
152153  1  0
152154  1  0
152155  1  0
155156  1  0
155157  1  0
155158  1  0
 64159  1  0
159160  1  0
160161  1  0
160162  1  0
160163  1  0
163164  1  0
163165  1  0
163166  1  0
 58167  1  0
167168  1  0
168169  1  0
168170  1  0
168171  1  0
171172  1  0
171173  1  0
171174  1  0
 48175  1  6
 24176  1  0
176177  1  0
177178  1  1
178179  1  0
179180  1  0
179181  1  0
179182  1  0
182183  1  0
182184  1  0
182185  1  0
 17186  1  0
186187  1  0
187188  1  1
188189  1  0
189190  1  0
189191  1  0
189192  1  0
192193  1  0
192194  1  0
192195  1  0
  4196  1  0
196197  1  0
197198  1  6
197199  1  0
199200  1  0
200201  1  6
201202  1  0
202203  2  0
202204  1  0
204205  2  0
205206  1  0
206207  2  0
207208  1  0
208209  2  0
200210  1  0
210211  1  1
211212  1  0
212213  2  0
212214  1  0
214215  2  0
215216  1  0
216217  2  0
217218  1  0
218219  2  0
210220  1  0
220221  1  6
222221  1  1
222223  1  0
223224  1  0
224225  1  0
225226  1  0
225227  1  0
225228  1  0
228229  1  0
228230  1  0
228231  1  0
222232  1  0
232233  1  0
233234  1  0
233235  1  0
233236  1  0
236237  1  0
236238  1  0
236239  1  0
220240  1  0
198  2  1  0
209204  1  0
219214  1  0
187 15  1  0
240197  1  0
177 22  1  0
175 28  1  0
150 75  1  0
140 79  1  0
105 92  1  0
M  END
$$$$
43
     RDKit          2D

240249  0  0  0  0  0  0  0  0999 V2000
    3.0000    0.0000    0.0000 C   0  0  0  0  0  0  0  0  0  0  0  0
    1.5000   -0.0000    0.0000 C   0  0  0  0  0  0  0  0  0  0  0  0
    0.7500   -1.2990    0.0000 C   0  0  0  0  0  0  0  0  0  0  0  0
   -0.7500   -1.2990    0.0000 C   0  0  0  0  0  0  0  0  0  0  0  0
   -1.5000   -2.5981    0.0000 C   0  0  0  0  0  0  0  0  0  0  0  0
   -3.0000   -2.5981    0.0000 C   0  0  0  0  0  0  0  0  0  0  0  0
   -3.7500   -1.2990    0.0000 O   0  0  0  0  0  0  0  0  0  0  0  0
   -3.7500   -3.8971    0.0000 C   0  0  0  0  0  0  0  0  0  0  0  0
   -5.2500   -3.8971    0.0000 C   0  0  0  0  0  0  0  0  0  0  0  0
   -6.0000   -5.1962    0.0000 C   0  0  0  0  0  0  0  0  0  0  0  0
   -7.5000   -5.1962    0.0000 C   0  0  0  0  0  0  0  0  0  0  0  0
   -8.2500   -3.8971    0.0000 O   0  0  0  0  0  0  0  0  0  0  0  0
   -8.2500   -6.4952    0.0000 C   0  0  0  0  0  0  0  0  0  0  0  0
   -9.7500   -6.4952    0.0000 C   0  0  0  0  0  0  0  0  0  0  0  0
  -10.5000   -7.7942    0.0000 C   0  0  0  0  0  0  0  0  0  0  0  0
   -9.8899   -9.1645    0.0000 O   0  0  0  0  0  0  0  0  0  0  0  0
  -11.0046  -10.1682    0.0000 C   0  0  0  0  0  0  0  0  0  0  0  0
  -10.8478  -11.6600    0.0000 C   0  0  0  0  0  0  0  0  0  0  0  0
  -12.0613  -12.5417    0.0000 C   0  0  0  0  0  0  0  0  0  0  0  0
  -11.9046  -14.0335    0.0000 C   0  0  0  0  0  0  0  0  0  0  0  0
  -13.1181  -14.9152    0.0000 C   0  0  0  0  0  0  0  0  0  0  0  0
  -12.9613  -16.4069    0.0000 C   0  0  0  0  0  0  0  0  0  0  0  0
  -11.6622  -17.1569    0.0000 O   0  0  0  0  0  0  0  0  0  0  0  0
  -11.9741  -18.6242    0.0000 C   0  0  0  0  0  0  0  0  0  0  0  0
  -10.9704  -19.7389    0.0000 C   0  0  0  0  0  0  0  0  0  0  0  0
  -11.4339  -21.1655    0.0000 C   0  0  0  0  0  0  0  0  0  0  0  0
  -12.9012  -21.4773    0.0000 O   0  0  0  0  0  0  0  0  0  0  0  0
  -10.4302  -22.2802    0.0000 C   0  0  0  0  0  0  0  0  0  0  0  0
  -10.8938  -23.7068    0.0000 C   0  0  0  0  0  0  0  0  0  0  0  0
   -9.8901  -24.8215    0.0000 C   0  0  0  0  0  0  0  0  0  0  0  0
  -10.3536  -26.2481    0.0000 O   0  0  0  0  0  0  0  0  0  0  0  0
  -11.8208  -26.5599    0.0000 Si  0  0  0  0  0  4  0  0  0  0  0  0
  -11.5090  -28.0272    0.0000 C   0  0  0  0  0  0  0  0  0  0  0  0
  -12.1327  -25.0927    0.0000 C   0  0  0  0  0  0  0  0  0  0  0  0
  -13.2880  -26.8718    0.0000 C   0  0  0  0  0  0  0  0  0  0  0  0
  -13.5999  -25.4046    0.0000 C   0  0  0  0  0  0  0  0  0  0  0  0
  -12.9762  -28.3390    0.0000 C   0  0  0  0  0  0  0  0  0  0  0  0
  -14.7553  -27.1837    0.0000 C   0  0  0  0  0  0  0  0  0  0  0  0
   -8.4229  -24.5096    0.0000 C   0  0  0  0  0  0  0  0  0  0  0  0
   -7.4192  -25.6243    0.0000 O   0  0  0  0  0  0  0  0  0  0  0  0
   -7.8827  -27.0509    0.0000 Si  0  0  0  0  0  4  0  0  0  0  0  0
   -6.4561  -27.5144    0.0000 C   0  0  0  0  0  0  0  0  0  0  0  0
   -9.3093  -26.5874    0.0000 C   0  0  0  0  0  0  0  0  0  0  0  0
   -8.3462  -28.4775    0.0000 C   0  0  0  0  0  0  0  0  0  0  0  0
   -6.9196  -28.9410    0.0000 C   0  0  0  0  0  0  0  0  0  0  0  0
   -9.7728  -28.0140    0.0000 C   0  0  0  0  0  0  0  0  0  0  0  0
   -8.8097  -29.9041    0.0000 C   0  0  0  0  0  0  0  0  0  0  0  0
   -7.9593  -23.0830    0.0000 C   0  0  0  0  0  0  0  0  0  0  0  0
   -6.4921  -22.7712    0.0000 C   0  0  0  0  0  0  0  0  0  0  0  0
   -5.4884  -23.8859    0.0000 O   0  0  0  0  0  0  0  0  0  0  0  0
   -4.0212  -23.5740    0.0000 Si  0  0  0  0  0  4  0  0  0  0  0  0
   -3.7093  -25.0412    0.0000 C   0  0  0  0  0  0  0  0  0  0  0  0
   -4.3331  -22.1068    0.0000 C   0  0  0  0  0  0  0  0  0  0  0  0
   -2.5540  -23.2622    0.0000 C   0  0  0  0  0  0  0  0  0  0  0  0
   -2.8658  -21.7949    0.0000 C   0  0  0  0  0  0  0  0  0  0  0  0
   -2.2421  -24.7294    0.0000 C   0  0  0  0  0  0  0  0  0  0  0  0
   -1.0867  -22.9503    0.0000 C   0  0  0  0  0  0  0  0  0  0  0  0
   -6.0286  -21.3446    0.0000 C   0  0  0  0  0  0  0  0  0  0  0  0
   -4.5614  -21.0327    0.0000 C   0  0  0  0  0  0  0  0  0  0  0  0
   -4.0978  -19.6061    0.0000 C   0  0  0  0  0  0  0  0  0  0  0  0
   -2.6306  -19.2943    0.0000 C   0  0  0  0  0  0  0  0  0  0  0  0
   -1.6269  -20.4090    0.0000 C   0  0  0  0  0  0  0  0  0  0  0  0
   -2.1671  -17.8677    0.0000 C   0  0  0  0  0  0  0  0  0  0  0  0
   -0.6999  -17.5558    0.0000 C   0  0  0  0  0  0  0  0  0  0  0  0
   -0.2363  -16.1292    0.0000 C   0  0  0  0  0  0  0  0  0  0  0  0
    1.2309  -15.8174    0.0000 C   0  0  0  0  0  0  0  0  0  0  0  0
    2.2346  -16.9321    0.0000 O   0  0  0  0  0  0  0  0  0  0  0  0
    3.7018  -16.6202    0.0000 Si  0  0  0  0  0  4  0  0  0  0  0  0
    4.0137  -18.0874    0.0000 C   0  0  0  0  0  0  0  0  0  0  0  0
    3.3899  -15.1530    0.0000 C   0  0  0  0  0  0  0  0  0  0  0  0
    5.1690  -16.3083    0.0000 C   0  0  0  0  0  0  0  0  0  0  0  0
    5.2162  -14.9592    0.0000 C   0  0  0  0  0  0  0  0  0  0  0  0
    5.4809  -17.7756    0.0000 C   0  0  0  0  0  0  0  0  0  0  0  0
    6.6633  -16.1776    0.0000 C   0  0  0  0  0  0  0  0  0  0  0  0
    1.6944  -14.3908    0.0000 C   0  0  0  0  0  0  0  0  0  0  0  0
    0.8127  -13.1773    0.0000 O   0  0  0  0  0  0  0  0  0  0  0  0
    1.6944  -11.9637    0.0000 C   0  0  0  0  0  0  0  0  0  0  0  0
    1.2309  -10.5371    0.0000 C   0  0  0  0  0  0  0  0  0  0  0  0
    2.2346   -9.4224    0.0000 C   0  0  0  0  0  0  0  0  0  0  0  0
    3.7018   -9.7343    0.0000 O   0  0  0  0  0  0  0  0  0  0  0  0
    4.7055   -8.6196    0.0000 C   0  0  0  0  0  0  0  0  0  0  0  0
    6.1727   -8.9314    0.0000 C   0  0  0  0  0  0  0  0  0  0  0  0
    7.1764   -7.8167    0.0000 C   0  0  0  0  0  0  0  0  0  0  0  0
    6.7129   -6.3901    0.0000 C   0  0  0  0  0  0  0  0  0  0  0  0
    8.6436   -8.1286    0.0000 C   0  0  0  0  0  0  0  0  0  0  0  0
    9.6473   -7.0139    0.0000 C   0  0  0  0  0  0  0  0  0  0  0  0
   11.1145   -7.3257    0.0000 C   0  0  0  0  0  0  0  0  0  0  0  0
   12.1182   -6.2110    0.0000 C   0  0  0  0  0  0  0  0  0  0  0  0
   13.5855   -6.5229    0.0000 C   0  0  0  0  0  0  0  0  0  0  0  0
   14.5892   -5.4082    0.0000 C   0  0  0  0  0  0  0  0  0  0  0  0
   16.0564   -5.7200    0.0000 C   0  0  0  0  0  0  0  0  0  0  0  0
   16.5199   -7.1466    0.0000 C   0  0  0  0  0  0  0  0  0  0  0  0
   15.5162   -8.2613    0.0000 O   0  0  0  0  0  0  0  0  0  0  0  0
   15.9797   -9.6879    0.0000 C   0  0  0  0  0  0  0  0  0  0  0  0
   17.4470   -9.9998    0.0000 C   0  0  0  0  0  0  0  0  0  0  0  0
   18.4507   -8.8851    0.0000 C   0  0  0  0  0  0  0  0  0  0  0  0
   19.9179   -9.1969    0.0000 O   0  0  0  0  0  0  0  0  0  0  0  0
   20.3814  -10.6235    0.0000 Si  0  0  0  0  0  4  0  0  0  0  0  0
   21.8080  -10.1600    0.0000 C   0  0  0  0  0  0  0  0  0  0  0  0
   18.9548  -11.0871    0.0000 C   0  0  0  0  0  0  0  0  0  0  0  0
   20.8449  -12.0501    0.0000 C   0  0  0  0  0  0  0  0  0  0  0  0
   19.4183  -12.5136    0.0000 C   0  0  0  0  0  0  0  0  0  0  0  0
   22.2715  -11.5866    0.0000 C   0  0  0  0  0  0  0  0  0  0  0  0
   21.3085  -13.4767    0.0000 C   0  0  0  0  0  0  0  0  0  0  0  0
   17.9871   -7.4585    0.0000 C   0  0  0  0  0  0  0  0  0  0  0  0
   18.9908   -6.3438    0.0000 O   0  0  0  0  0  0  0  0  0  0  0  0
   20.4580   -6.6556    0.0000 Si  0  0  0  0  0  4  0  0  0  0  0  0
   20.7699   -5.1884    0.0000 C   0  0  0  0  0  0  0  0  0  0  0  0
   20.1462   -8.1229    0.0000 C   0  0  0  0  0  0  0  0  0  0  0  0
   21.9253   -6.9675    0.0000 C   0  0  0  0  0  0  0  0  0  0  0  0
   22.2371   -5.5003    0.0000 C   0  0  0  0  0  0  0  0  0  0  0  0
   21.6134   -8.4347    0.0000 C   0  0  0  0  0  0  0  0  0  0  0  0
   23.3925   -7.2794    0.0000 C   0  0  0  0  0  0  0  0  0  0  0  0
   14.1256   -3.9816    0.0000 O   0  0  0  0  0  0  0  0  0  0  0  0
   15.1293   -2.8669    0.0000 Si  0  0  0  0  0  4  0  0  0  0  0  0
   14.0146   -1.8632    0.0000 C   0  0  0  0  0  0  0  0  0  0  0  0
   16.2440   -3.8706    0.0000 C   0  0  0  0  0  0  0  0  0  0  0  0
   16.1330   -1.7522    0.0000 C   0  0  0  0  0  0  0  0  0  0  0  0
   15.0183   -0.7485    0.0000 C   0  0  0  0  0  0  0  0  0  0  0  0
   17.2477   -2.7559    0.0000 C   0  0  0  0  0  0  0  0  0  0  0  0
   17.1367   -0.6374    0.0000 C   0  0  0  0  0  0  0  0  0  0  0  0
    9.1838   -5.5873    0.0000 O   0  0  0  0  0  0  0  0  0  0  0  0
   10.1875   -4.4726    0.0000 Si  0  0  0  0  0  4  0  0  0  0  0  0
    9.0728   -3.4689    0.0000 C   0  0  0  0  0  0  0  0  0  0  0  0
   11.3022   -5.4763    0.0000 C   0  0  0  0  0  0  0  0  0  0  0  0
   11.1912   -3.3579    0.0000 C   0  0  0  0  0  0  0  0  0  0  0  0
   10.0765   -2.3542    0.0000 C   0  0  0  0  0  0  0  0  0  0  0  0
   12.3059   -4.3616    0.0000 C   0  0  0  0  0  0  0  0  0  0  0  0
   12.1949   -2.2431    0.0000 C   0  0  0  0  0  0  0  0  0  0  0  0
    4.2420   -7.1930    0.0000 C   0  0  0  0  0  0  0  0  0  0  0  0
    2.7747   -6.8811    0.0000 C   0  0  0  0  0  0  0  0  0  0  0  0
    2.3112   -5.4545    0.0000 O   0  0  0  0  0  0  0  0  0  0  0  0
    3.3149   -4.3398    0.0000 Si  0  0  0  0  0  4  0  0  0  0  0  0
    2.2002   -3.3361    0.0000 C   0  0  0  0  0  0  0  0  0  0  0  0
    4.4296   -5.3435    0.0000 C   0  0  0  0  0  0  0  0  0  0  0  0
    4.3186   -3.2251    0.0000 C   0  0  0  0  0  0  0  0  0  0  0  0
    5.4333   -4.2288    0.0000 C   0  0  0  0  0  0  0  0  0  0  0  0
    3.2039   -2.2214    0.0000 C   0  0  0  0  0  0  0  0  0  0  0  0
    5.3223   -2.1104    0.0000 C   0  0  0  0  0  0  0  0  0  0  0  0
    1.7710   -7.9958    0.0000 C   0  0  0  0  0  0  0  0  0  0  0  0
    0.3038   -7.6840    0.0000 O   0  0  0  0  0  0  0  0  0  0  0  0
   -0.1597   -6.2574    0.0000 Si  0  0  0  0  0  4  0  0  0  0  0  0
   -1.5863   -6.7209    0.0000 C   0  0  0  0  0  0  0  0  0  0  0  0
    1.2669   -5.7939    0.0000 C   0  0  0  0  0  0  0  0  0  0  0  0
   -0.6232   -4.8308    0.0000 C   0  0  0  0  0  0  0  0  0  0  0  0
    0.8034   -4.3673    0.0000 C   0  0  0  0  0  0  0  0  0  0  0  0
   -2.0498   -5.2943    0.0000 C   0  0  0  0  0  0  0  0  0  0  0  0
   -1.0867   -3.4042    0.0000 C   0  0  0  0  0  0  0  0  0  0  0  0
    3.1210  -12.4273    0.0000 C   0  0  0  0  0  0  0  0  0  0  0  0
    3.1210  -13.9273    0.0000 C   0  0  0  0  0  0  0  0  0  0  0  0
    4.3345  -14.8089    0.0000 O   0  0  0  0  0  0  0  0  0  0  0  0
    5.7048  -14.1988    0.0000 Si  0  0  0  0  0  4  0  0  0  0  0  0
    6.4774  -15.4846    0.0000 C   0  0  0  0  0  0  0  0  0  0  0  0
    5.0947  -12.8285    0.0000 C   0  0  0  0  0  0  0  0  0  0  0  0
    7.0752  -13.5887    0.0000 C   0  0  0  0  0  0  0  0  0  0  0  0
    6.4650  -12.2184    0.0000 C   0  0  0  0  0  0  0  0  0  0  0  0
    7.6853  -14.9590    0.0000 C   0  0  0  0  0  0  0  0  0  0  0  0
    8.4455  -12.9786    0.0000 C   0  0  0  0  0  0  0  0  0  0  0  0
    0.3038  -18.6705    0.0000 O   0  0  0  0  0  0  0  0  0  0  0  0
    1.7710  -18.3587    0.0000 Si  0  0  0  0  0  4  0  0  0  0  0  0
    2.0829  -19.8259    0.0000 C   0  0  0  0  0  0  0  0  0  0  0  0
    1.7989  -17.5620    0.0000 C   0  0  0  0  0  0  0  0  0  0  0  0
    3.2383  -18.0468    0.0000 C   0  0  0  0  0  0  0  0  0  0  0  0
    3.5501  -19.5140    0.0000 C   0  0  0  0  0  0  0  0  0  0  0  0
    3.6519  -16.6049    0.0000 C   0  0  0  0  0  0  0  0  0  0  0  0
    4.7055  -17.7349    0.0000 C   0  0  0  0  0  0  0  0  0  0  0  0
   -7.0323  -20.2299    0.0000 O   0  0  0  0  0  0  0  0  0  0  0  0
   -6.5688  -18.8033    0.0000 Si  0  0  0  0  0  4  0  0  0  0  0  0
   -7.9953  -18.3398    0.0000 C   0  0  0  0  0  0  0  0  0  0  0  0
   -5.1422  -19.2668    0.0000 C   0  0  0  0  0  0  0  0  0  0  0  0
   -6.1052  -17.3767    0.0000 C   0  0  0  0  0  0  0  0  0  0  0  0
   -4.6786  -17.8402    0.0000 C   0  0  0  0  0  0  0  0  0  0  0  0
   -7.5318  -16.9132    0.0000 C   0  0  0  0  0  0  0  0  0  0  0  0
   -5.6417  -15.9501    0.0000 C   0  0  0  0  0  0  0  0  0  0  0  0
   -8.9630  -21.9683    0.0000 O   0  0  0  0  0  0  0  0  0  0  0  0
  -13.4659  -18.7810    0.0000 C   0  0  0  0  0  0  0  0  0  0  0  0
  -14.0760  -17.4106    0.0000 C   0  0  0  0  0  0  0  0  0  0  0  0
  -15.5432  -17.0988    0.0000 O   0  0  0  0  0  0  0  0  0  0  0  0
  -16.5469  -18.2135    0.0000 Si  0  0  0  0  0  4  0  0  0  0  0  0
  -17.6616  -17.2098    0.0000 C   0  0  0  0  0  0  0  0  0  0  0  0
  -15.4322  -19.2172    0.0000 C   0  0  0  0  0  0  0  0  0  0  0  0
  -17.5506  -19.3282    0.0000 C   0  0  0  0  0  0  0  0  0  0  0  0
  -16.4359  -20.3319    0.0000 C   0  0  0  0  0  0  0  0  0  0  0  0
  -18.6653  -18.3245    0.0000 C   0  0  0  0  0  0  0  0  0  0  0  0
  -18.5543  -20.4429    0.0000 C   0  0  0  0  0  0  0  0  0  0  0  0
  -12.3037   -9.4182    0.0000 C   0  0  0  0  0  0  0  0  0  0  0  0
  -11.9918   -7.9510    0.0000 C   0  0  0  0  0  0  0  0  0  0  0  0
  -12.9955   -6.8363    0.0000 O   0  0  0  0  0  0  0  0  0  0  0  0
  -14.4627   -7.1482    0.0000 Si  0  0  0  0  0  4  0  0  0  0  0  0
  -14.7746   -5.6810    0.0000 C   0  0  0  0  0  0  0  0  0  0  0  0
  -14.1508   -8.6154    0.0000 C   0  0  0  0  0  0  0  0  0  0  0  0
  -15.9299   -7.4600    0.0000 C   0  0  0  0  0  0  0  0  0  0  0  0
  -15.6181   -8.9273    0.0000 C   0  0  0  0  0  0  0  0  0  0  0  0
  -16.2418   -5.9928    0.0000 C   0  0  0  0  0  0  0  0  0  0  0  0
  -17.3971   -7.7719    0.0000 C   0  0  0  0  0  0  0  0  0  0  0  0
   -1.5000   -0.0000    0.0000 O   0  0  0  0  0  0  0  0  0  0  0  0
   -0.7500    1.2990    0.0000 C   0  0  0  0  0  0  0  0  0  0  0  0
    0.7500    1.2990    0.0000 C   0  0  0  0  0  0  0  0  0  0  0  0
    0.0000    2.5981    0.0000 C   0  0  0  0  0  0  0  0  0  0  0  0
   -0.7500    3.8971    0.0000 C   0  0  0  0  0  0  0  0  0  0  0  0
    0.0000    5.1962    0.0000 O   0  0  0  0  0  0  0  0  0  0  0  0
    1.5000    5.1962    0.0000 C   0  0  0  0  0  0  0  0  0  0  0  0
    2.2500    3.8971    0.0000 O   0  0  0  0  0  0  0  0  0  0  0  0
    2.2500    6.4952    0.0000 C   0  0  0  0  0  0  0  0  0  0  0  0
    3.7500    6.4952    0.0000 C   0  0  0  0  0  0  0  0  0  0  0  0
    4.5000    7.7942    0.0000 C   0  0  0  0  0  0  0  0  0  0  0  0
    3.7500    9.0933    0.0000 C   0  0  0  0  0  0  0  0  0  0  0  0
    2.2500    9.0933    0.0000 C   0  0  0  0  0  0  0  0  0  0  0  0
    1.5000    7.7942    0.0000 C   0  0  0  0  0  0  0  0  0  0  0  0
   -2.2500    3.8971    0.0000 C   0  0  0  0  0  0  0  0  0  0  0  0
   -3.0000    5.1962    0.0000 O   0  0  0  0  0  0  0  0  0  0  0  0
   -2.2500    6.4952    0.0000 C   0  0  0  0  0  0  0  0  0  0  0  0
   -0.7500    6.4952    0.0000 O   0  0  0  0  0  0  0  0  0  0  0  0
   -3.0000    7.7942    0.0000 C   0  0  0  0  0  0  0  0  0  0  0  0
   -2.2500    9.0933    0.0000 C   0  0  0  0  0  0  0  0  0  0  0  0
   -3.0000   10.3923    0.0000 C   0  0  0  0  0  0  0  0  0  0  0  0
   -4.5000   10.3923    0.0000 C   0  0  0  0  0  0  0  0  0  0  0  0
   -5.2500    9.0933    0.0000 C   0  0  0  0  0  0  0  0  0  0  0  0
   -4.5000    7.7942    0.0000 C   0  0  0  0  0  0  0  0  0  0  0  0
   -3.0000    2.5981    0.0000 C   0  0  0  0  0  0  0  0  0  0  0  0
   -4.5000    2.5981    0.0000 C   0  0  0  0  0  0  0  0  0  0  0  0
   -5.2500    3.8971    0.0000 C   0  0  0  0  0  0  0  0  0  0  0  0
   -6.7500    3.8971    0.0000 C   0  0  0  0  0  0  0  0  0  0  0  0
   -7.5000    5.1962    0.0000 O   0  0  0  0  0  0  0  0  0  0  0  0
   -9.0000    5.1962    0.0000 Si  0  0  0  0  0  4  0  0  0  0  0  0
   -9.0000    6.6962    0.0000 C   0  0  0  0  0  0  0  0  0  0  0  0
   -9.0000    3.6962    0.0000 C   0  0  0  0  0  0  0  0  0  0  0  0
  -10.5000    5.1962    0.0000 C   0  0  0  0  0  0  0  0  0  0  0  0
  -10.5000    3.6962    0.0000 C   0  0  0  0  0  0  0  0  0  0  0  0
  -10.5000    6.6962    0.0000 C   0  0  0  0  0  0  0  0  0  0  0  0
  -12.0000    5.1962    0.0000 C   0  0  0  0  0  0  0  0  0  0  0  0
   -4.5000    5.1962    0.0000 O   0  0  0  0  0  0  0  0  0  0  0  0
   -5.2500    6.4952    0.0000 Si  0  0  0  0  0  4  0  0  0  0  0  0
   -3.9510    7.2452    0.0000 C   0  0  0  0  0  0  0  0  0  0  0  0
   -6.5490    5.7452    0.0000 C   0  0  0  0  0  0  0  0  0  0  0  0
   -6.0000    7.7942    0.0000 C   0  0  0  0  0  0  0  0  0  0  0  0
   -7.2990    7.0442    0.0000 C   0  0  0  0  0  0  0  0  0  0  0  0
   -4.7010    8.5442    0.0000 C   0  0  0  0  0  0  0  0  0  0  0  0
   -6.7500    9.0933    0.0000 C   0  0  0  0  0  0  0  0  0  0  0  0
   -2.2500    1.2990    0.0000 O   0  0  0  0  0  0  0  0  0  0  0  0
  1  2  2  0
  2  3  1  0
  3  4  1  0
  4  5  1  1
  5  6  1  0
  6  7  1  6
  6  8  1  0
  8  9  1  0
  9 10  2  0
 10 11  1  0
 11 12  1  6
 11 13  1  0
 13 14  1  0
 15 14  1  1
 15 16  1  0
 16 17  1  0
 17 18  1  1
 18 19  1  0
 19 20  1  0
 20 21  1  0
 22 21  1  1
 22 23  1  0
 23 24  1  0
 24 25  1  1
 25 26  1  0
 26 27  1  1
 26 28  1  0
 28 29  1  1
 29 30  1  0
 30 31  1  6
 31 32  1  0
 32 33  1  0
 32 34  1  0
 32 35  1  0
 35 36  1  0
 35 37  1  0
 35 38  1  0
 30 39  1  0
 39 40  1  1
 40 41  1  0
 41 42  1  0
 41 43  1  0
 41 44  1  0
 44 45  1  0
 44 46  1  0
 44 47  1  0
 39 48  1  0
 48 49  1  0
 49 50  1  1
 50 51  1  0
 51 52  1  0
 51 53  1  0
 51 54  1  0
 54 55  1  0
 54 56  1  0
 54 57  1  0
 49 58  1  0
 58 59  1  1
 59 60  1  0
 60 61  1  0
 61 62  1  0
 61 63  2  0
 63 64  1  0
 64 65  1  1
 66 65  1  6
 66 67  1  0
 67 68  1  0
 68 69  1  0
 68 70  1  0
 68 71  1  0
 71 72  1  0
 71 73  1  0
 71 74  1  0
 66 75  1  0
 75 76  1  1
 76 77  1  0
 77 78  1  1
 79 78  1  6
 79 80  1  0
 80 81  1  0
 81 82  1  6
 82 83  1  0
 83 84  1  0
 83 85  2  0
 85 86  1  0
 86 87  1  6
 87 88  1  0
 88 89  2  0
 89 90  1  0
 90 91  1  1
 92 91  1  6
 92 93  1  0
 93 94  1  0
 94 95  1  0
 95 96  1  0
 96 97  1  1
 97 98  1  0
 98 99  1  0
 98100  1  0
 98101  1  0
101102  1  0
101103  1  0
101104  1  0
 96105  1  0
105106  1  1
106107  1  0
107108  1  0
107109  1  0
107110  1  0
110111  1  0
110112  1  0
110113  1  0
 90114  1  0
114115  1  0
115116  1  0
115117  1  0
115118  1  0
118119  1  0
118120  1  0
118121  1  0
 86122  1  0
122123  1  0
123124  1  0
123125  1  0
123126  1  0
126127  1  0
126128  1  0
126129  1  0
 81130  1  0
130131  1  0
131132  1  1
132133  1  0
133134  1  0
133135  1  0
133136  1  0
136137  1  0
136138  1  0
136139  1  0
131140  1  0
140141  1  1
141142  1  0
142143  1  0
142144  1  0
142145  1  0
145146  1  0
145147  1  0
145148  1  0
 77149  1  0
149150  1  0
150151  1  1
151152  1  0
152153  1  0
152154  1  0
152155  1  0
155156  1  0
155157  1  0
155158  1  0
 64159  1  0
159160  1  0
160161  1  0
160162  1  0
160163  1  0
163164  1  0
163165  1  0
163166  1  0
 58167  1  0
167168  1  0
168169  1  0
168170  1  0
168171  1  0
171172  1  0
171173  1  0
171174  1  0
 48175  1  6
 24176  1  0
176177  1  0
177178  1  1
178179  1  0
179180  1  0
179181  1  0
179182  1  0
182183  1  0
182184  1  0
182185  1  0
 17186  1  0
186187  1  0
187188  1  1
188189  1  0
189190  1  0
189191  1  0
189192  1  0
192193  1  0
192194  1  0
192195  1  0
  4196  1  0
196197  1  0
197198  1  6
197199  1  0
199200  1  0
200201  1  6
201202  1  0
202203  2  0
202204  1  0
204205  2  0
205206  1  0
206207  2  0
207208  1  0
208209  2  0
200210  1  0
210211  1  1
211212  1  0
212213  2  0
212214  1  0
214215  2  0
215216  1  0
216217  2  0
217218  1  0
218219  2  0
210220  1  0
220221  1  6
222221  1  1
222223  1  0
223224  1  0
224225  1  0
225226  1  0
225227  1  0
225228  1  0
228229  1  0
228230  1  0
228231  1  0
222232  1  0
232233  1  0
233234  1  0
233235  1  0
233236  1  0
236237  1  0
236238  1  0
236239  1  0
220240  1  0
198  2  1  0
209204  1  0
219214  1  0
187 15  1  0
240197  1  0
177 22  1  0
175 28  1  0
150 75  1  0
140 79  1  0
105 92  1  0
M  END
$$$$
43-debenzoylated
     RDKit          2D

224231  0  0  0  0  0  0  0  0999 V2000
    3.0000    0.0000    0.0000 C   0  0  0  0  0  0  0  0  0  0  0  0
    1.5000   -0.0000    0.0000 C   0  0  0  0  0  0  0  0  0  0  0  0
    0.7500   -1.2990    0.0000 C   0  0  0  0  0  0  0  0  0  0  0  0
   -0.7500   -1.2990    0.0000 C   0  0  0  0  0  0  0  0  0  0  0  0
   -1.5000   -2.5981    0.0000 C   0  0  0  0  0  0  0  0  0  0  0  0
   -3.0000   -2.5981    0.0000 C   0  0  0  0  0  0  0  0  0  0  0  0
   -3.5861   -1.2173    0.0000 O   0  0  0  0  0  0  0  0  0  0  0  0
   -3.7500   -3.8971    0.0000 C   0  0  0  0  0  0  0  0  0  0  0  0
   -5.2500   -3.8971    0.0000 C   0  0  0  0  0  0  0  0  0  0  0  0
   -6.0000   -5.1962    0.0000 C   0  0  0  0  0  0  0  0  0  0  0  0
   -7.5000   -5.1962    0.0000 C   0  0  0  0  0  0  0  0  0  0  0  0
   -8.2500   -3.8971    0.0000 O   0  0  0  0  0  0  0  0  0  0  0  0
   -8.2500   -6.4952    0.0000 C   0  0  0  0  0  0  0  0  0  0  0  0
   -9.7500   -6.4952    0.0000 C   0  0  0  0  0  0  0  0  0  0  0  0
  -10.5000   -7.7942    0.0000 C   0  0  0  0  0  0  0  0  0  0  0  0
   -9.8899   -9.1645    0.0000 O   0  0  0  0  0  0  0  0  0  0  0  0
  -11.0046  -10.1682    0.0000 C   0  0  0  0  0  0  0  0  0  0  0  0
  -10.8478  -11.6600    0.0000 C   0  0  0  0  0  0  0  0  0  0  0  0
  -12.0613  -12.5417    0.0000 C   0  0  0  0  0  0  0  0  0  0  0  0
  -11.9046  -14.0335    0.0000 C   0  0  0  0  0  0  0  0  0  0  0  0
  -13.1181  -14.9152    0.0000 C   0  0  0  0  0  0  0  0  0  0  0  0
  -12.9613  -16.4069    0.0000 C   0  0  0  0  0  0  0  0  0  0  0  0
  -11.6622  -17.1569    0.0000 O   0  0  0  0  0  0  0  0  0  0  0  0
  -11.9741  -18.6242    0.0000 C   0  0  0  0  0  0  0  0  0  0  0  0
  -10.9704  -19.7389    0.0000 C   0  0  0  0  0  0  0  0  0  0  0  0
  -11.4339  -21.1655    0.0000 C   0  0  0  0  0  0  0  0  0  0  0  0
  -12.9012  -21.4773    0.0000 O   0  0  0  0  0  0  0  0  0  0  0  0
  -10.4302  -22.2802    0.0000 C   0  0  0  0  0  0  0  0  0  0  0  0
  -10.8938  -23.7068    0.0000 C   0  0  0  0  0  0  0  0  0  0  0  0
   -9.8901  -24.8215    0.0000 C   0  0  0  0  0  0  0  0  0  0  0  0
  -10.3536  -26.2481    0.0000 O   0  0  0  0  0  0  0  0  0  0  0  0
  -11.8208  -26.5599    0.0000 Si  0  0  0  0  0  4  0  0  0  0  0  0
  -11.5090  -28.0272    0.0000 C   0  0  0  0  0  0  0  0  0  0  0  0
  -12.1327  -25.0927    0.0000 C   0  0  0  0  0  0  0  0  0  0  0  0
  -13.2880  -26.8718    0.0000 C   0  0  0  0  0  0  0  0  0  0  0  0
  -13.5999  -25.4046    0.0000 C   0  0  0  0  0  0  0  0  0  0  0  0
  -12.9762  -28.3390    0.0000 C   0  0  0  0  0  0  0  0  0  0  0  0
  -14.7553  -27.1837    0.0000 C   0  0  0  0  0  0  0  0  0  0  0  0
   -8.4229  -24.5096    0.0000 C   0  0  0  0  0  0  0  0  0  0  0  0
   -7.4192  -25.6243    0.0000 O   0  0  0  0  0  0  0  0  0  0  0  0
   -7.8827  -27.0509    0.0000 Si  0  0  0  0  0  4  0  0  0  0  0  0
   -6.4561  -27.5144    0.0000 C   0  0  0  0  0  0  0  0  0  0  0  0
   -9.3093  -26.5874    0.0000 C   0  0  0  0  0  0  0  0  0  0  0  0
   -8.3462  -28.4775    0.0000 C   0  0  0  0  0  0  0  0  0  0  0  0
   -6.9196  -28.9410    0.0000 C   0  0  0  0  0  0  0  0  0  0  0  0
   -9.7728  -28.0140    0.0000 C   0  0  0  0  0  0  0  0  0  0  0  0
   -8.8097  -29.9041    0.0000 C   0  0  0  0  0  0  0  0  0  0  0  0
   -7.9593  -23.0830    0.0000 C   0  0  0  0  0  0  0  0  0  0  0  0
   -6.4921  -22.7712    0.0000 C   0  0  0  0  0  0  0  0  0  0  0  0
   -5.4884  -23.8859    0.0000 O   0  0  0  0  0  0  0  0  0  0  0  0
   -4.0212  -23.5740    0.0000 Si  0  0  0  0  0  4  0  0  0  0  0  0
   -3.7093  -25.0412    0.0000 C   0  0  0  0  0  0  0  0  0  0  0  0
   -4.3331  -22.1068    0.0000 C   0  0  0  0  0  0  0  0  0  0  0  0
   -2.5540  -23.2622    0.0000 C   0  0  0  0  0  0  0  0  0  0  0  0
   -2.8658  -21.7949    0.0000 C   0  0  0  0  0  0  0  0  0  0  0  0
   -2.2421  -24.7294    0.0000 C   0  0  0  0  0  0  0  0  0  0  0  0
   -1.0867  -22.9503    0.0000 C   0  0  0  0  0  0  0  0  0  0  0  0
   -6.0286  -21.3446    0.0000 C   0  0  0  0  0  0  0  0  0  0  0  0
   -4.5614  -21.0327    0.0000 C   0  0  0  0  0  0  0  0  0  0  0  0
   -4.0978  -19.6061    0.0000 C   0  0  0  0  0  0  0  0  0  0  0  0
   -2.6306  -19.2943    0.0000 C   0  0  0  0  0  0  0  0  0  0  0  0
   -1.6269  -20.4090    0.0000 C   0  0  0  0  0  0  0  0  0  0  0  0
   -2.1671  -17.8677    0.0000 C   0  0  0  0  0  0  0  0  0  0  0  0
   -0.6999  -17.5558    0.0000 C   0  0  0  0  0  0  0  0  0  0  0  0
   -0.2363  -16.1292    0.0000 C   0  0  0  0  0  0  0  0  0  0  0  0
    1.2309  -15.8174    0.0000 C   0  0  0  0  0  0  0  0  0  0  0  0
    2.2346  -16.9321    0.0000 O   0  0  0  0  0  0  0  0  0  0  0  0
    3.7018  -16.6202    0.0000 Si  0  0  0  0  0  4  0  0  0  0  0  0
    4.0137  -18.0874    0.0000 C   0  0  0  0  0  0  0  0  0  0  0  0
    3.3899  -15.1530    0.0000 C   0  0  0  0  0  0  0  0  0  0  0  0
    5.1690  -16.3083    0.0000 C   0  0  0  0  0  0  0  0  0  0  0  0
    5.2162  -14.9592    0.0000 C   0  0  0  0  0  0  0  0  0  0  0  0
    5.4809  -17.7756    0.0000 C   0  0  0  0  0  0  0  0  0  0  0  0
    6.6633  -16.1776    0.0000 C   0  0  0  0  0  0  0  0  0  0  0  0
    1.6944  -14.3908    0.0000 C   0  0  0  0  0  0  0  0  0  0  0  0
    0.8127  -13.1773    0.0000 O   0  0  0  0  0  0  0  0  0  0  0  0
    1.6944  -11.9637    0.0000 C   0  0  0  0  0  0  0  0  0  0  0  0
    1.2309  -10.5371    0.0000 C   0  0  0  0  0  0  0  0  0  0  0  0
    2.2346   -9.4224    0.0000 C   0  0  0  0  0  0  0  0  0  0  0  0
    3.7018   -9.7343    0.0000 O   0  0  0  0  0  0  0  0  0  0  0  0
    4.7055   -8.6196    0.0000 C   0  0  0  0  0  0  0  0  0  0  0  0
    6.1727   -8.9314    0.0000 C   0  0  0  0  0  0  0  0  0  0  0  0
    7.1764   -7.8167    0.0000 C   0  0  0  0  0  0  0  0  0  0  0  0
    6.7129   -6.3901    0.0000 C   0  0  0  0  0  0  0  0  0  0  0  0
    8.6436   -8.1286    0.0000 C   0  0  0  0  0  0  0  0  0  0  0  0
    9.6473   -7.0139    0.0000 C   0  0  0  0  0  0  0  0  0  0  0  0
   11.1145   -7.3257    0.0000 C   0  0  0  0  0  0  0  0  0  0  0  0
   12.1182   -6.2110    0.0000 C   0  0  0  0  0  0  0  0  0  0  0  0
   13.5855   -6.5229    0.0000 C   0  0  0  0  0  0  0  0  0  0  0  0
   14.5892   -5.4082    0.0000 C   0  0  0  0  0  0  0  0  0  0  0  0
   16.0564   -5.7200    0.0000 C   0  0  0  0  0  0  0  0  0  0  0  0
   16.5199   -7.1466    0.0000 C   0  0  0  0  0  0  0  0  0  0  0  0
   15.5162   -8.2613    0.0000 O   0  0  0  0  0  0  0  0  0  0  0  0
   15.9797   -9.6879    0.0000 C   0  0  0  0  0  0  0  0  0  0  0  0
   17.4470   -9.9998    0.0000 C   0  0  0  0  0  0  0  0  0  0  0  0
   18.4507   -8.8851    0.0000 C   0  0  0  0  0  0  0  0  0  0  0  0
   19.9179   -9.1969    0.0000 O   0  0  0  0  0  0  0  0  0  0  0  0
   20.3814  -10.6235    0.0000 Si  0  0  0  0  0  4  0  0  0  0  0  0
   21.8080  -10.1600    0.0000 C   0  0  0  0  0  0  0  0  0  0  0  0
   18.9548  -11.0871    0.0000 C   0  0  0  0  0  0  0  0  0  0  0  0
   20.8449  -12.0501    0.0000 C   0  0  0  0  0  0  0  0  0  0  0  0
   19.4183  -12.5136    0.0000 C   0  0  0  0  0  0  0  0  0  0  0  0
   22.2715  -11.5866    0.0000 C   0  0  0  0  0  0  0  0  0  0  0  0
   21.3085  -13.4767    0.0000 C   0  0  0  0  0  0  0  0  0  0  0  0
   17.9871   -7.4585    0.0000 C   0  0  0  0  0  0  0  0  0  0  0  0
   18.9908   -6.3438    0.0000 O   0  0  0  0  0  0  0  0  0  0  0  0
   20.4580   -6.6556    0.0000 Si  0  0  0  0  0  4  0  0  0  0  0  0
   20.7699   -5.1884    0.0000 C   0  0  0  0  0  0  0  0  0  0  0  0
   20.1462   -8.1229    0.0000 C   0  0  0  0  0  0  0  0  0  0  0  0
   21.9253   -6.9675    0.0000 C   0  0  0  0  0  0  0  0  0  0  0  0
   22.2371   -5.5003    0.0000 C   0  0  0  0  0  0  0  0  0  0  0  0
   21.6134   -8.4347    0.0000 C   0  0  0  0  0  0  0  0  0  0  0  0
   23.3925   -7.2794    0.0000 C   0  0  0  0  0  0  0  0  0  0  0  0
   14.1256   -3.9816    0.0000 O   0  0  0  0  0  0  0  0  0  0  0  0
   15.1293   -2.8669    0.0000 Si  0  0  0  0  0  4  0  0  0  0  0  0
   16.2440   -3.8706    0.0000 C   0  0  0  0  0  0  0  0  0  0  0  0
   14.0146   -1.8632    0.0000 C   0  0  0  0  0  0  0  0  0  0  0  0
   16.1330   -1.7522    0.0000 C   0  0  0  0  0  0  0  0  0  0  0  0
   17.2477   -2.7559    0.0000 C   0  0  0  0  0  0  0  0  0  0  0  0
   15.0183   -0.7485    0.0000 C   0  0  0  0  0  0  0  0  0  0  0  0
   17.1367   -0.6374    0.0000 C   0  0  0  0  0  0  0  0  0  0  0  0
    9.1838   -5.5873    0.0000 O   0  0  0  0  0  0  0  0  0  0  0  0
   10.1875   -4.4726    0.0000 Si  0  0  0  0  0  4  0  0  0  0  0  0
    9.0728   -3.4689    0.0000 C   0  0  0  0  0  0  0  0  0  0  0  0
   11.3022   -5.4763    0.0000 C   0  0  0  0  0  0  0  0  0  0  0  0
   11.1912   -3.3579    0.0000 C   0  0  0  0  0  0  0  0  0  0  0  0
   10.0765   -2.3542    0.0000 C   0  0  0  0  0  0  0  0  0  0  0  0
   12.3059   -4.3616    0.0000 C   0  0  0  0  0  0  0  0  0  0  0  0
   12.1949   -2.2431    0.0000 C   0  0  0  0  0  0  0  0  0  0  0  0
    4.2420   -7.1930    0.0000 C   0  0  0  0  0  0  0  0  0  0  0  0
    2.7747   -6.8811    0.0000 C   0  0  0  0  0  0  0  0  0  0  0  0
    2.3112   -5.4545    0.0000 O   0  0  0  0  0  0  0  0  0  0  0  0
    3.3149   -4.3398    0.0000 Si  0  0  0  0  0  4  0  0  0  0  0  0
    2.2002   -3.3361    0.0000 C   0  0  0  0  0  0  0  0  0  0  0  0
    4.4296   -5.3435    0.0000 C   0  0  0  0  0  0  0  0  0  0  0  0
    4.3186   -3.2251    0.0000 C   0  0  0  0  0  0  0  0  0  0  0  0
    5.4333   -4.2288    0.0000 C   0  0  0  0  0  0  0  0  0  0  0  0
    3.2039   -2.2214    0.0000 C   0  0  0  0  0  0  0  0  0  0  0  0
    5.3223   -2.1104    0.0000 C   0  0  0  0  0  0  0  0  0  0  0  0
    1.7710   -7.9958    0.0000 C   0  0  0  0  0  0  0  0  0  0  0  0
    0.3038   -7.6840    0.0000 O   0  0  0  0  0  0  0  0  0  0  0  0
   -0.1597   -6.2574    0.0000 Si  0  0  0  0  0  4  0  0  0  0  0  0
   -1.5863   -6.7209    0.0000 C   0  0  0  0  0  0  0  0  0  0  0  0
    1.2669   -5.7939    0.0000 C   0  0  0  0  0  0  0  0  0  0  0  0
   -0.6232   -4.8308    0.0000 C   0  0  0  0  0  0  0  0  0  0  0  0
    0.8034   -4.3673    0.0000 C   0  0  0  0  0  0  0  0  0  0  0  0
   -2.0498   -5.2943    0.0000 C   0  0  0  0  0  0  0  0  0  0  0  0
   -1.0867   -3.4042    0.0000 C   0  0  0  0  0  0  0  0  0  0  0  0
    3.1210  -12.4273    0.0000 C   0  0  0  0  0  0  0  0  0  0  0  0
    3.1210  -13.9273    0.0000 C   0  0  0  0  0  0  0  0  0  0  0  0
    4.3345  -14.8089    0.0000 O   0  0  0  0  0  0  0  0  0  0  0  0
    5.7048  -14.1988    0.0000 Si  0  0  0  0  0  4  0  0  0  0  0  0
    6.4774  -15.4846    0.0000 C   0  0  0  0  0  0  0  0  0  0  0  0
    5.0947  -12.8285    0.0000 C   0  0  0  0  0  0  0  0  0  0  0  0
    7.0752  -13.5887    0.0000 C   0  0  0  0  0  0  0  0  0  0  0  0
    6.4650  -12.2184    0.0000 C   0  0  0  0  0  0  0  0  0  0  0  0
    7.6853  -14.9590    0.0000 C   0  0  0  0  0  0  0  0  0  0  0  0
    8.4455  -12.9786    0.0000 C   0  0  0  0  0  0  0  0  0  0  0  0
    0.3038  -18.6705    0.0000 O   0  0  0  0  0  0  0  0  0  0  0  0
    1.7710  -18.3587    0.0000 Si  0  0  0  0  0  4  0  0  0  0  0  0
    2.0829  -19.8259    0.0000 C   0  0  0  0  0  0  0  0  0  0  0  0
    1.7989  -17.5620    0.0000 C   0  0  0  0  0  0  0  0  0  0  0  0
    3.2383  -18.0468    0.0000 C   0  0  0  0  0  0  0  0  0  0  0  0
    3.5501  -19.5140    0.0000 C   0  0  0  0  0  0  0  0  0  0  0  0
    3.6519  -16.6049    0.0000 C   0  0  0  0  0  0  0  0  0  0  0  0
    4.7055  -17.7349    0.0000 C   0  0  0  0  0  0  0  0  0  0  0  0
   -7.0323  -20.2299    0.0000 O   0  0  0  0  0  0  0  0  0  0  0  0
   -6.5688  -18.8033    0.0000 Si  0  0  0  0  0  4  0  0  0  0  0  0
   -7.9953  -18.3398    0.0000 C   0  0  0  0  0  0  0  0  0  0  0  0
   -5.1422  -19.2668    0.0000 C   0  0  0  0  0  0  0  0  0  0  0  0
   -6.1052  -17.3767    0.0000 C   0  0  0  0  0  0  0  0  0  0  0  0
   -4.6786  -17.8402    0.0000 C   0  0  0  0  0  0  0  0  0  0  0  0
   -7.5318  -16.9132    0.0000 C   0  0  0  0  0  0  0  0  0  0  0  0
   -5.6417  -15.9501    0.0000 C   0  0  0  0  0  0  0  0  0  0  0  0
   -8.9630  -21.9683    0.0000 O   0  0  0  0  0  0  0  0  0  0  0  0
  -13.4659  -18.7810    0.0000 C   0  0  0  0  0  0  0  0  0  0  0  0
  -14.0760  -17.4106    0.0000 C   0  0  0  0  0  0  0  0  0  0  0  0
  -15.5432  -17.0988    0.0000 O   0  0  0  0  0  0  0  0  0  0  0  0
  -16.5469  -18.2135    0.0000 Si  0  0  0  0  0  4  0  0  0  0  0  0
  -17.6616  -17.2098    0.0000 C   0  0  0  0  0  0  0  0  0  0  0  0
  -15.4322  -19.2172    0.0000 C   0  0  0  0  0  0  0  0  0  0  0  0
  -17.5506  -19.3282    0.0000 C   0  0  0  0  0  0  0  0  0  0  0  0
  -16.4359  -20.3319    0.0000 C   0  0  0  0  0  0  0  0  0  0  0  0
  -18.6653  -18.3245    0.0000 C   0  0  0  0  0  0  0  0  0  0  0  0
  -18.5543  -20.4429    0.0000 C   0  0  0  0  0  0  0  0  0  0  0  0
  -12.3037   -9.4182    0.0000 C   0  0  0  0  0  0  0  0  0  0  0  0
  -11.9918   -7.9510    0.0000 C   0  0  0  0  0  0  0  0  0  0  0  0
  -12.9955   -6.8363    0.0000 O   0  0  0  0  0  0  0  0  0  0  0  0
  -14.4627   -7.1482    0.0000 Si  0  0  0  0  0  4  0  0  0  0  0  0
  -14.7746   -5.6810    0.0000 C   0  0  0  0  0  0  0  0  0  0  0  0
  -14.1508   -8.6154    0.0000 C   0  0  0  0  0  0  0  0  0  0  0  0
  -15.9299   -7.4600    0.0000 C   0  0  0  0  0  0  0  0  0  0  0  0
  -15.6181   -8.9273    0.0000 C   0  0  0  0  0  0  0  0  0  0  0  0
  -16.2418   -5.9928    0.0000 C   0  0  0  0  0  0  0  0  0  0  0  0
  -17.3971   -7.7719    0.0000 C   0  0  0  0  0  0  0  0  0  0  0  0
   -1.5000   -0.0000    0.0000 O   0  0  0  0  0  0  0  0  0  0  0  0
   -0.7500    1.2990    0.0000 C   0  0  0  0  0  0  0  0  0  0  0  0
    0.7500    1.2990    0.0000 C   0  0  0  0  0  0  0  0  0  0  0  0
    0.0000    2.5981    0.0000 C   0  0  0  0  0  0  0  0  0  0  0  0
   -0.7500    3.8971    0.0000 C   0  0  0  0  0  0  0  0  0  0  0  0
    0.0000    5.1962    0.0000 O   0  0  0  0  0  0  0  0  0  0  0  0
   -2.2500    3.8971    0.0000 C   0  0  0  0  0  0  0  0  0  0  0  0
   -3.0000    5.1962    0.0000 O   0  0  0  0  0  0  0  0  0  0  0  0
   -3.0000    2.5981    0.0000 C   0  0  0  0  0  0  0  0  0  0  0  0
   -4.5000    2.5981    0.0000 C   0  0  0  0  0  0  0  0  0  0  0  0
   -5.2500    1.2990    0.0000 C   0  0  0  0  0  0  0  0  0  0  0  0
   -6.7500    1.2990    0.0000 C   0  0  0  0  0  0  0  0  0  0  0  0
   -7.5000    0.0000    0.0000 O   0  0  0  0  0  0  0  0  0  0  0  0
   -9.0000   -0.0000    0.0000 Si  0  0  0  0  0  4  0  0  0  0  0  0
   -9.0000   -1.5000    0.0000 C   0  0  0  0  0  0  0  0  0  0  0  0
   -9.0000    1.5000    0.0000 C   0  0  0  0  0  0  0  0  0  0  0  0
  -10.5000    0.0000    0.0000 C   0  0  0  0  0  0  0  0  0  0  0  0
  -10.5000    1.5000    0.0000 C   0  0  0  0  0  0  0  0  0  0  0  0
  -10.5000   -1.5000    0.0000 C   0  0  0  0  0  0  0  0  0  0  0  0
  -12.0000    0.0000    0.0000 C   0  0  0  0  0  0  0  0  0  0  0  0
   -4.5000    0.0000    0.0000 O   0  0  0  0  0  0  0  0  0  0  0  0
   -5.2500   -1.2990    0.0000 Si  0  0  0  0  0  4  0  0  0  0  0  0
   -3.8692   -1.8851    0.0000 C   0  0  0  0  0  0  0  0  0  0  0  0
   -6.5490   -0.5490    0.0000 C   0  0  0  0  0  0  0  0  0  0  0  0
   -6.0000   -2.5981    0.0000 C   0  0  0  0  0  0  0  0  0  0  0  0
   -7.2990   -1.8481    0.0000 C   0  0  0  0  0  0  0  0  0  0  0  0
   -4.7010   -3.3481    0.0000 C   0  0  0  0  0  0  0  0  0  0  0  0
   -6.7500   -3.8971    0.0000 C   0  0  0  0  0  0  0  0  0  0  0  0
   -2.2500    1.2990    0.0000 O   0  0  0  0  0  0  0  0  0  0  0  0
  1  2  2  0
  2  3  1  0
  3  4  1  0
  4  5  1  1
  5  6  1  0
  6  7  1  6
  6  8  1  0
  8  9  1  0
  9 10  2  0
 10 11  1  0
 11 12  1  6
 11 13  1  0
 13 14  1  0
 15 14  1  1
 15 16  1  0
 16 17  1  0
 17 18  1  1
 18 19  1  0
 19 20  1  0
 20 21  1  0
 22 21  1  1
 22 23  1  0
 23 24  1  0
 24 25  1  1
 25 26  1  0
 26 27  1  1
 26 28  1  0
 28 29  1  1
 29 30  1  0
 30 31  1  6
 31 32  1  0
 32 33  1  0
 32 34  1  0
 32 35  1  0
 35 36  1  0
 35 37  1  0
 35 38  1  0
 30 39  1  0
 39 40  1  1
 40 41  1  0
 41 42  1  0
 41 43  1  0
 41 44  1  0
 44 45  1  0
 44 46  1  0
 44 47  1  0
 39 48  1  0
 48 49  1  0
 49 50  1  1
 50 51  1  0
 51 52  1  0
 51 53  1  0
 51 54  1  0
 54 55  1  0
 54 56  1  0
 54 57  1  0
 49 58  1  0
 58 59  1  1
 59 60  1  0
 60 61  1  0
 61 62  1  0
 61 63  2  0
 63 64  1  0
 64 65  1  1
 66 65  1  6
 66 67  1  0
 67 68  1  0
 68 69  1  0
 68 70  1  0
 68 71  1  0
 71 72  1  0
 71 73  1  0
 71 74  1  0
 66 75  1  0
 75 76  1  1
 76 77  1  0
 77 78  1  1
 79 78  1  6
 79 80  1  0
 80 81  1  0
 81 82  1  6
 82 83  1  0
 83 84  1  0
 83 85  2  0
 85 86  1  0
 86 87  1  6
 87 88  1  0
 88 89  2  0
 89 90  1  0
 90 91  1  1
 92 91  1  6
 92 93  1  0
 93 94  1  0
 94 95  1  0
 95 96  1  0
 96 97  1  1
 97 98  1  0
 98 99  1  0
 98100  1  0
 98101  1  0
101102  1  0
101103  1  0
101104  1  0
 96105  1  0
105106  1  1
106107  1  0
107108  1  0
107109  1  0
107110  1  0
110111  1  0
110112  1  0
110113  1  0
 90114  1  0
114115  1  0
115116  1  0
115117  1  0
115118  1  0
118119  1  0
118120  1  0
118121  1  0
 86122  1  0
122123  1  0
123124  1  0
123125  1  0
123126  1  0
126127  1  0
126128  1  0
126129  1  0
 81130  1  0
130131  1  0
131132  1  1
132133  1  0
133134  1  0
133135  1  0
133136  1  0
136137  1  0
136138  1  0
136139  1  0
131140  1  0
140141  1  1
141142  1  0
142143  1  0
142144  1  0
142145  1  0
145146  1  0
145147  1  0
145148  1  0
 77149  1  0
149150  1  0
150151  1  1
151152  1  0
152153  1  0
152154  1  0
152155  1  0
155156  1  0
155157  1  0
155158  1  0
 64159  1  0
159160  1  0
160161  1  0
160162  1  0
160163  1  0
163164  1  0
163165  1  0
163166  1  0
 58167  1  0
167168  1  0
168169  1  0
168170  1  0
168171  1  0
171172  1  0
171173  1  0
171174  1  0
 48175  1  6
 24176  1  0
176177  1  0
177178  1  1
178179  1  0
179180  1  0
179181  1  0
179182  1  0
182183  1  0
182184  1  0
182185  1  0
 17186  1  0
186187  1  0
187188  1  1
188189  1  0
189190  1  0
189191  1  0
189192  1  0
192193  1  0
192194  1  0
192195  1  0
  4196  1  0
196197  1  0
197198  1  6
197199  1  0
199200  1  0
200201  1  6
200202  1  0
202203  1  1
202204  1  0
204205  1  6
206205  1  6
206207  1  0
207208  1  0
208209  1  0
209210  1  0
209211  1  0
209212  1  0
212213  1  0
212214  1  0
212215  1  0
206216  1  0
216217  1  0
217218  1  0
217219  1  0
217220  1  0
220221  1  0
220222  1  0
220223  1  0
204224  1  0
198  2  1  0
187 15  1  0
224197  1  0
177 22  1  0
175 28  1  0
150 75  1  0
140 79  1  0
105 92  1  0
M  END
$$$$
40-epi-38
     RDKit          2D

 81 83  0  0  0  0  0  0  0  0999 V2000
    6.0000   -2.5981    0.0000 C   0  0  0  0  0  0  0  0  0  0  0  0
    5.2500   -1.2990    0.0000 C   0  0  0  0  0  0  0  0  0  0  0  0
    3.7500   -1.2990    0.0000 C   0  0  0  0  0  0  0  0  0  0  0  0
    3.0000   -2.5981    0.0000 O   0  0  0  0  0  0  0  0  0  0  0  0
    3.7500   -3.8971    0.0000 Si  0  0  0  0  0  4  0  0  0  0  0  0
    2.4510   -4.6471    0.0000 C   0  0  0  0  0  0  0  0  0  0  0  0
    5.0490   -3.1471    0.0000 C   0  0  0  0  0  0  0  0  0  0  0  0
    4.5000   -5.1962    0.0000 C   0  0  0  0  0  0  0  0  0  0  0  0
    3.2010   -5.9462    0.0000 C   0  0  0  0  0  0  0  0  0  0  0  0
    5.7990   -4.4462    0.0000 C   0  0  0  0  0  0  0  0  0  0  0  0
    5.2500   -6.4952    0.0000 C   0  0  0  0  0  0  0  0  0  0  0  0
    3.0000   -0.0000    0.0000 C   0  0  0  0  0  0  0  0  0  0  0  0
    3.7500    1.2990    0.0000 O   0  0  0  0  0  0  0  0  0  0  0  0
    5.2500    1.2990    0.0000 Si  0  0  0  0  0  4  0  0  0  0  0  0
    5.2500    2.7990    0.0000 C   0  0  0  0  0  0  0  0  0  0  0  0
    5.2500   -0.2010    0.0000 C   0  0  0  0  0  0  0  0  0  0  0  0
    6.7500    1.2990    0.0000 C   0  0  0  0  0  0  0  0  0  0  0  0
    6.7500   -0.2010    0.0000 C   0  0  0  0  0  0  0  0  0  0  0  0
    6.7500    2.7990    0.0000 C   0  0  0  0  0  0  0  0  0  0  0  0
    8.2500    1.2990    0.0000 C   0  0  0  0  0  0  0  0  0  0  0  0
    1.5000    0.0000    0.0000 C   0  0  0  0  0  0  0  0  0  0  0  0
    0.7500   -1.2990    0.0000 O   0  0  0  0  0  0  0  0  0  0  0  0
   -0.7500   -1.2990    0.0000 C   0  0  0  0  0  0  0  0  0  0  0  0
   -1.5000   -2.5981    0.0000 C   0  0  0  0  0  0  0  0  0  0  0  0
   -0.7500   -3.8971    0.0000 O   0  0  0  0  0  0  0  0  0  0  0  0
   -3.0000   -2.5981    0.0000 C   0  0  0  0  0  0  0  0  0  0  0  0
   -3.7500   -3.8971    0.0000 C   0  0  0  0  0  0  0  0  0  0  0  0
   -3.1399   -5.2674    0.0000 C   0  0  0  0  0  0  0  0  0  0  0  0
   -4.2546   -6.2711    0.0000 C   0  0  0  0  0  0  0  0  0  0  0  0
   -4.0978   -7.7629    0.0000 O   0  0  0  0  0  0  0  0  0  0  0  0
   -5.3113   -8.6446    0.0000 Si  0  0  0  0  0  4  0  0  0  0  0  0
   -4.4297   -9.8581    0.0000 C   0  0  0  0  0  0  0  0  0  0  0  0
   -6.1930   -7.4311    0.0000 C   0  0  0  0  0  0  0  0  0  0  0  0
   -6.5249   -9.5263    0.0000 C   0  0  0  0  0  0  0  0  0  0  0  0
   -7.4065   -8.3127    0.0000 C   0  0  0  0  0  0  0  0  0  0  0  0
   -5.6432  -10.7398    0.0000 C   0  0  0  0  0  0  0  0  0  0  0  0
   -7.7384  -10.4079    0.0000 C   0  0  0  0  0  0  0  0  0  0  0  0
   -5.5537   -5.5211    0.0000 C   0  0  0  0  0  0  0  0  0  0  0  0
   -6.9240   -6.1312    0.0000 C   0  0  0  0  0  0  0  0  0  0  0  0
   -8.1375   -5.2496    0.0000 C   0  0  0  0  0  0  0  0  0  0  0  0
   -9.5078   -5.8597    0.0000 C   0  0  0  0  0  0  0  0  0  0  0  0
  -10.7213   -4.9780    0.0000 C   0  0  0  0  0  0  0  0  0  0  0  0
  -12.0917   -5.5881    0.0000 C   0  0  0  0  0  0  0  0  0  0  0  0
  -12.4035   -7.0553    0.0000 C   0  0  0  0  0  0  0  0  0  0  0  0
  -13.8953   -7.2121    0.0000 C   0  0  0  0  0  0  0  0  0  0  0  0
  -14.6453   -8.5111    0.0000 O   0  0  0  0  0  0  0  0  0  0  0  0
  -16.1453   -8.5111    0.0000 Si  0  0  0  0  0  4  0  0  0  0  0  0
  -16.1453  -10.0111    0.0000 C   0  0  0  0  0  0  0  0  0  0  0  0
  -16.1453   -7.0111    0.0000 C   0  0  0  0  0  0  0  0  0  0  0  0
  -17.6453   -8.5111    0.0000 C   0  0  0  0  0  0  0  0  0  0  0  0
  -17.6453   -7.0111    0.0000 C   0  0  0  0  0  0  0  0  0  0  0  0
  -17.6453  -10.0111    0.0000 C   0  0  0  0  0  0  0  0  0  0  0  0
  -19.1453   -8.5111    0.0000 C   0  0  0  0  0  0  0  0  0  0  0  0
  -14.5054   -5.8418    0.0000 C   0  0  0  0  0  0  0  0  0  0  0  0
  -15.9726   -5.5299    0.0000 C   0  0  0  0  0  0  0  0  0  0  0  0
  -16.4362   -4.1033    0.0000 C   0  0  0  0  0  0  0  0  0  0  0  0
  -17.9034   -3.7915    0.0000 C   0  0  0  0  0  0  0  0  0  0  0  0
  -18.9071   -4.9062    0.0000 O   0  0  0  0  0  0  0  0  0  0  0  0
  -18.3669   -2.3649    0.0000 O   0  0  0  0  0  0  0  0  0  0  0  0
  -19.8341   -2.0530    0.0000 C   0  0  0  0  0  0  0  0  0  0  0  0
  -13.3907   -4.8381    0.0000 O   0  0  0  0  0  0  0  0  0  0  0  0
   -5.2418   -4.0539    0.0000 O   0  0  0  0  0  0  0  0  0  0  0  0
   -1.5000    0.0000    0.0000 C   0  0  0  0  0  0  0  0  0  0  0  0
   -0.7500    1.2990    0.0000 C   0  0  0  0  0  0  0  0  0  0  0  0
   -1.5000    2.5981    0.0000 O   0  0  0  0  0  0  0  0  0  0  0  0
   -0.7500    3.8971    0.0000 Si  0  0  0  0  0  4  0  0  0  0  0  0
   -2.0490    4.6471    0.0000 C   0  0  0  0  0  0  0  0  0  0  0  0
    0.5490    3.1471    0.0000 C   0  0  0  0  0  0  0  0  0  0  0  0
    0.0000    5.1962    0.0000 C   0  0  0  0  0  0  0  0  0  0  0  0
    1.2990    4.4462    0.0000 C   0  0  0  0  0  0  0  0  0  0  0  0
   -1.2990    5.9462    0.0000 C   0  0  0  0  0  0  0  0  0  0  0  0
    0.7500    6.4952    0.0000 C   0  0  0  0  0  0  0  0  0  0  0  0
    0.7500    1.2990    0.0000 C   0  0  0  0  0  0  0  0  0  0  0  0
    1.5000    2.5981    0.0000 O   0  0  0  0  0  0  0  0  0  0  0  0
    3.0000    2.5981    0.0000 Si  0  0  0  0  0  4  0  0  0  0  0  0
    3.0000    4.0981    0.0000 C   0  0  0  0  0  0  0  0  0  0  0  0
    2.6370    1.1427    0.0000 C   0  0  0  0  0  0  0  0  0  0  0  0
    4.5000    2.5981    0.0000 C   0  0  0  0  0  0  0  0  0  0  0  0
    4.5000    4.0981    0.0000 C   0  0  0  0  0  0  0  0  0  0  0  0
    4.8743    1.8943    0.0000 C   0  0  0  0  0  0  0  0  0  0  0  0
    6.0000    2.5981    0.0000 C   0  0  0  0  0  0  0  0  0  0  0  0
  1  2  2  0
  2  3  1  0
  3  4  1  6
  4  5  1  0
  5  6  1  0
  5  7  1  0
  5  8  1  0
  8  9  1  0
  8 10  1  0
  8 11  1  0
  3 12  1  0
 12 13  1  1
 13 14  1  0
 14 15  1  0
 14 16  1  0
 14 17  1  0
 17 18  1  0
 17 19  1  0
 17 20  1  0
 12 21  1  0
 21 22  1  1
 22 23  1  0
 23 24  1  0
 24 25  1  1
 24 26  1  0
 27 26  1  1
 27 28  1  0
 28 29  1  0
 29 30  1  1
 30 31  1  0
 31 32  1  0
 31 33  1  0
 31 34  1  0
 34 35  1  0
 34 36  1  0
 34 37  1  0
 29 38  1  0
 38 39  1  1
 39 40  1  0
 40 41  1  0
 41 42  1  0
 43 42  1  1
 43 44  1  0
 44 45  1  0
 45 46  1  1
 46 47  1  0
 47 48  1  0
 47 49  1  0
 47 50  1  0
 50 51  1  0
 50 52  1  0
 50 53  1  0
 45 54  1  0
 54 55  1  1
 55 56  1  0
 56 57  1  0
 57 58  2  0
 57 59  1  0
 59 60  1  0
 54 61  1  0
 38 62  1  0
 23 63  1  6
 63 64  1  0
 64 65  1  1
 65 66  1  0
 66 67  1  0
 66 68  1  0
 66 69  1  0
 69 70  1  0
 69 71  1  0
 69 72  1  0
 64 73  1  0
 73 74  1  6
 74 75  1  0
 75 76  1  0
 75 77  1  0
 75 78  1  0
 78 79  1  0
 78 80  1  0
 78 81  1  0
 73 21  1  0
 62 27  1  0
 61 43  1  0
M  END
$$$$
40-epi-39
     RDKit          2D

187192  0  0  0  0  0  0  0  0999 V2000
    0.0482  -22.1349    0.0000 C   0  0  0  0  0  0  0  0  0  0  0  0
   -0.7018  -20.8359    0.0000 O   0  0  0  0  0  0  0  0  0  0  0  0
    0.0482  -19.5369    0.0000 C   0  0  0  0  0  0  0  0  0  0  0  0
    1.5482  -19.5369    0.0000 O   0  0  0  0  0  0  0  0  0  0  0  0
   -0.7018  -18.2378    0.0000 C   0  0  0  0  0  0  0  0  0  0  0  0
    0.0482  -16.9388    0.0000 C   0  0  0  0  0  0  0  0  0  0  0  0
   -0.7018  -15.6397    0.0000 C   0  0  0  0  0  0  0  0  0  0  0  0
   -0.0917  -14.2694    0.0000 O   0  0  0  0  0  0  0  0  0  0  0  0
   -1.2064  -13.2657    0.0000 C   0  0  0  0  0  0  0  0  0  0  0  0
   -1.0496  -11.7739    0.0000 C   0  0  0  0  0  0  0  0  0  0  0  0
    0.3207  -11.1638    0.0000 C   0  0  0  0  0  0  0  0  0  0  0  0
    0.4775   -9.6721    0.0000 C   0  0  0  0  0  0  0  0  0  0  0  0
    1.8478   -9.0619    0.0000 C   0  0  0  0  0  0  0  0  0  0  0  0
    2.0046   -7.5702    0.0000 C   0  0  0  0  0  0  0  0  0  0  0  0
    0.8899   -6.5665    0.0000 O   0  0  0  0  0  0  0  0  0  0  0  0
    1.5000   -5.1962    0.0000 C   0  0  0  0  0  0  0  0  0  0  0  0
    0.7500   -3.8971    0.0000 C   0  0  0  0  0  0  0  0  0  0  0  0
    1.5000   -2.5981    0.0000 C   0  0  0  0  0  0  0  0  0  0  0  0
    3.0000   -2.5981    0.0000 O   0  0  0  0  0  0  0  0  0  0  0  0
    0.7500   -1.2990    0.0000 C   0  0  0  0  0  0  0  0  0  0  0  0
    1.5000   -0.0000    0.0000 C   0  0  0  0  0  0  0  0  0  0  0  0
    0.7500    1.2990    0.0000 C   0  0  0  0  0  0  0  0  0  0  0  0
    1.5000    2.5981    0.0000 O   0  0  0  0  0  0  0  0  0  0  0  0
    3.0000    2.5981    0.0000 Si  0  0  0  0  0  4  0  0  0  0  0  0
    3.0000    4.0981    0.0000 C   0  0  0  0  0  0  0  0  0  0  0  0
    3.0000    1.0981    0.0000 C   0  0  0  0  0  0  0  0  0  0  0  0
    4.5000    2.5981    0.0000 C   0  0  0  0  0  0  0  0  0  0  0  0
    4.5000    1.0981    0.0000 C   0  0  0  0  0  0  0  0  0  0  0  0
    4.5000    4.0981    0.0000 C   0  0  0  0  0  0  0  0  0  0  0  0
    6.0000    2.5981    0.0000 C   0  0  0  0  0  0  0  0  0  0  0  0
   -0.7500    1.2990    0.0000 C   0  0  0  0  0  0  0  0  0  0  0  0
   -1.5000    2.5981    0.0000 O   0  0  0  0  0  0  0  0  0  0  0  0
   -0.7500    3.8971    0.0000 Si  0  0  0  0  0  4  0  0  0  0  0  0
   -1.8281    4.7096    0.0000 C   0  0  0  0  0  0  0  0  0  0  0  0
    0.5490    3.1471    0.0000 C   0  0  0  0  0  0  0  0  0  0  0  0
    0.0000    5.1962    0.0000 C   0  0  0  0  0  0  0  0  0  0  0  0
   -1.2990    5.9462    0.0000 C   0  0  0  0  0  0  0  0  0  0  0  0
    1.2990    4.4462    0.0000 C   0  0  0  0  0  0  0  0  0  0  0  0
    0.7500    6.4952    0.0000 C   0  0  0  0  0  0  0  0  0  0  0  0
   -1.5000   -0.0000    0.0000 C   0  0  0  0  0  0  0  0  0  0  0  0
   -3.0000   -0.0000    0.0000 C   0  0  0  0  0  0  0  0  0  0  0  0
   -3.7500   -1.2990    0.0000 O   0  0  0  0  0  0  0  0  0  0  0  0
   -3.0000   -2.5981    0.0000 Si  0  0  0  0  0  4  0  0  0  0  0  0
   -4.2990   -3.3481    0.0000 C   0  0  0  0  0  0  0  0  0  0  0  0
   -1.7010   -1.8481    0.0000 C   0  0  0  0  0  0  0  0  0  0  0  0
   -2.2500   -3.8971    0.0000 C   0  0  0  0  0  0  0  0  0  0  0  0
   -0.9510   -3.1471    0.0000 C   0  0  0  0  0  0  0  0  0  0  0  0
   -3.5490   -4.6471    0.0000 C   0  0  0  0  0  0  0  0  0  0  0  0
   -1.5000   -5.1962    0.0000 C   0  0  0  0  0  0  0  0  0  0  0  0
   -3.7500    1.2990    0.0000 C   0  0  0  0  0  0  0  0  0  0  0  0
   -5.2500    1.2990    0.0000 C   0  0  0  0  0  0  0  0  0  0  0  0
   -6.0000    2.5981    0.0000 C   0  0  0  0  0  0  0  0  0  0  0  0
   -7.5000    2.5981    0.0000 C   0  0  0  0  0  0  0  0  0  0  0  0
   -8.2500    1.2990    0.0000 C   0  0  0  0  0  0  0  0  0  0  0  0
   -8.2500    3.8971    0.0000 C   0  0  0  0  0  0  0  0  0  0  0  0
   -9.7500    3.8971    0.0000 C   0  0  0  0  0  0  0  0  0  0  0  0
  -10.5000    5.1962    0.0000 C   0  0  0  0  0  0  0  0  0  0  0  0
  -12.0000    5.1962    0.0000 C   0  0  0  0  0  0  0  0  0  0  0  0
  -12.7500    3.8971    0.0000 O   0  0  0  0  0  0  0  0  0  0  0  0
  -14.2500    3.8971    0.0000 Si  0  0  0  0  0  4  0  0  0  0  0  0
  -14.2500    2.3971    0.0000 C   0  0  0  0  0  0  0  0  0  0  0  0
  -14.2500    5.3971    0.0000 C   0  0  0  0  0  0  0  0  0  0  0  0
  -15.7500    3.8971    0.0000 C   0  0  0  0  0  0  0  0  0  0  0  0
  -15.7500    5.3971    0.0000 C   0  0  0  0  0  0  0  0  0  0  0  0
  -15.7500    2.3971    0.0000 C   0  0  0  0  0  0  0  0  0  0  0  0
  -17.2500    3.8971    0.0000 C   0  0  0  0  0  0  0  0  0  0  0  0
  -12.7500    6.4952    0.0000 C   0  0  0  0  0  0  0  0  0  0  0  0
  -14.2418    6.6520    0.0000 O   0  0  0  0  0  0  0  0  0  0  0  0
  -14.5537    8.1192    0.0000 C   0  0  0  0  0  0  0  0  0  0  0  0
  -15.9240    8.7293    0.0000 C   0  0  0  0  0  0  0  0  0  0  0  0
  -16.0808   10.2211    0.0000 C   0  0  0  0  0  0  0  0  0  0  0  0
  -14.8672   11.1028    0.0000 O   0  0  0  0  0  0  0  0  0  0  0  0
  -15.0240   12.5946    0.0000 C   0  0  0  0  0  0  0  0  0  0  0  0
  -13.8105   13.4762    0.0000 C   0  0  0  0  0  0  0  0  0  0  0  0
  -12.4402   12.8661    0.0000 C   0  0  0  0  0  0  0  0  0  0  0  0
  -12.2834   11.3743    0.0000 C   0  0  0  0  0  0  0  0  0  0  0  0
  -11.2267   13.7478    0.0000 C   0  0  0  0  0  0  0  0  0  0  0  0
   -9.8563   13.1377    0.0000 C   0  0  0  0  0  0  0  0  0  0  0  0
   -8.6428   14.0194    0.0000 C   0  0  0  0  0  0  0  0  0  0  0  0
   -7.2725   13.4093    0.0000 C   0  0  0  0  0  0  0  0  0  0  0  0
   -6.0590   14.2909    0.0000 C   0  0  0  0  0  0  0  0  0  0  0  0
   -4.6887   13.6808    0.0000 C   0  0  0  0  0  0  0  0  0  0  0  0
   -3.4751   14.5625    0.0000 C   0  0  0  0  0  0  0  0  0  0  0  0
   -3.6319   16.0543    0.0000 C   0  0  0  0  0  0  0  0  0  0  0  0
   -5.0022   16.6644    0.0000 O   0  0  0  0  0  0  0  0  0  0  0  0
   -5.1590   18.1562    0.0000 C   0  0  0  0  0  0  0  0  0  0  0  0
   -3.9455   19.0379    0.0000 C   0  0  0  0  0  0  0  0  0  0  0  0
   -2.5752   18.4278    0.0000 C   0  0  0  0  0  0  0  0  0  0  0  0
   -1.3617   19.3094    0.0000 O   0  0  0  0  0  0  0  0  0  0  0  0
   -1.5185   20.8012    0.0000 Si  0  0  0  0  0  4  0  0  0  0  0  0
   -0.0267   20.9580    0.0000 C   0  0  0  0  0  0  0  0  0  0  0  0
   -3.0102   20.6444    0.0000 C   0  0  0  0  0  0  0  0  0  0  0  0
   -1.6752   22.2930    0.0000 C   0  0  0  0  0  0  0  0  0  0  0  0
   -3.1670   22.1362    0.0000 C   0  0  0  0  0  0  0  0  0  0  0  0
   -0.1835   22.4498    0.0000 C   0  0  0  0  0  0  0  0  0  0  0  0
   -1.8320   23.7848    0.0000 C   0  0  0  0  0  0  0  0  0  0  0  0
   -2.4184   16.9360    0.0000 C   0  0  0  0  0  0  0  0  0  0  0  0
   -1.0481   16.3259    0.0000 O   0  0  0  0  0  0  0  0  0  0  0  0
    0.1654   17.2076    0.0000 Si  0  0  0  0  0  4  0  0  0  0  0  0
    1.0471   15.9940    0.0000 C   0  0  0  0  0  0  0  0  0  0  0  0
   -0.7162   18.4211    0.0000 C   0  0  0  0  0  0  0  0  0  0  0  0
    1.3790   18.0892    0.0000 C   0  0  0  0  0  0  0  0  0  0  0  0
    2.2607   16.8757    0.0000 C   0  0  0  0  0  0  0  0  0  0  0  0
    0.4973   19.3028    0.0000 C   0  0  0  0  0  0  0  0  0  0  0  0
    2.5925   18.9709    0.0000 C   0  0  0  0  0  0  0  0  0  0  0  0
   -4.5319   12.1891    0.0000 O   0  0  0  0  0  0  0  0  0  0  0  0
   -3.1615   11.5790    0.0000 Si  0  0  0  0  0  4  0  0  0  0  0  0
   -3.7716   10.2086    0.0000 C   0  0  0  0  0  0  0  0  0  0  0  0
   -2.5514   12.9493    0.0000 C   0  0  0  0  0  0  0  0  0  0  0  0
   -1.7912   10.9689    0.0000 C   0  0  0  0  0  0  0  0  0  0  0  0
   -2.4013    9.5985    0.0000 C   0  0  0  0  0  0  0  0  0  0  0  0
   -1.1811   12.3392    0.0000 C   0  0  0  0  0  0  0  0  0  0  0  0
   -0.4209   10.3587    0.0000 C   0  0  0  0  0  0  0  0  0  0  0  0
   -9.6995   11.6459    0.0000 O   0  0  0  0  0  0  0  0  0  0  0  0
   -8.3292   11.0358    0.0000 Si  0  0  0  0  0  4  0  0  0  0  0  0
   -8.9393    9.6655    0.0000 C   0  0  0  0  0  0  0  0  0  0  0  0
   -7.7191   12.4061    0.0000 C   0  0  0  0  0  0  0  0  0  0  0  0
   -6.9589   10.4257    0.0000 C   0  0  0  0  0  0  0  0  0  0  0  0
   -6.3488   11.7960    0.0000 C   0  0  0  0  0  0  0  0  0  0  0  0
   -7.5690    9.0554    0.0000 C   0  0  0  0  0  0  0  0  0  0  0  0
   -5.5886    9.8156    0.0000 C   0  0  0  0  0  0  0  0  0  0  0  0
  -16.3943   13.2047    0.0000 C   0  0  0  0  0  0  0  0  0  0  0  0
  -17.6079   12.3230    0.0000 C   0  0  0  0  0  0  0  0  0  0  0  0
  -18.9782   12.9331    0.0000 O   0  0  0  0  0  0  0  0  0  0  0  0
  -19.1350   14.4249    0.0000 Si  0  0  0  0  0  4  0  0  0  0  0  0
  -20.6268   14.2681    0.0000 C   0  0  0  0  0  0  0  0  0  0  0  0
  -17.6432   14.5817    0.0000 C   0  0  0  0  0  0  0  0  0  0  0  0
  -19.2918   15.9167    0.0000 C   0  0  0  0  0  0  0  0  0  0  0  0
  -17.8000   16.0734    0.0000 C   0  0  0  0  0  0  0  0  0  0  0  0
  -20.7836   15.7599    0.0000 C   0  0  0  0  0  0  0  0  0  0  0  0
  -19.4486   17.4084    0.0000 C   0  0  0  0  0  0  0  0  0  0  0  0
  -17.4511   10.8312    0.0000 C   0  0  0  0  0  0  0  0  0  0  0  0
  -18.6646    9.9495    0.0000 O   0  0  0  0  0  0  0  0  0  0  0  0
  -20.0349   10.5596    0.0000 Si  0  0  0  0  0  4  0  0  0  0  0  0
  -20.6450    9.1893    0.0000 C   0  0  0  0  0  0  0  0  0  0  0  0
  -19.4248   11.9299    0.0000 C   0  0  0  0  0  0  0  0  0  0  0  0
  -21.4052   11.1697    0.0000 C   0  0  0  0  0  0  0  0  0  0  0  0
  -22.0153    9.7994    0.0000 C   0  0  0  0  0  0  0  0  0  0  0  0
  -20.7951   12.5400    0.0000 C   0  0  0  0  0  0  0  0  0  0  0  0
  -22.7756   11.7798    0.0000 C   0  0  0  0  0  0  0  0  0  0  0  0
  -13.2546    8.8692    0.0000 C   0  0  0  0  0  0  0  0  0  0  0  0
  -12.1399    7.8655    0.0000 C   0  0  0  0  0  0  0  0  0  0  0  0
  -10.6727    8.1774    0.0000 O   0  0  0  0  0  0  0  0  0  0  0  0
   -9.6690    7.0627    0.0000 Si  0  0  0  0  0  4  0  0  0  0  0  0
  -10.7837    6.0590    0.0000 C   0  0  0  0  0  0  0  0  0  0  0  0
   -8.5543    8.0664    0.0000 C   0  0  0  0  0  0  0  0  0  0  0  0
   -8.6653    5.9479    0.0000 C   0  0  0  0  0  0  0  0  0  0  0  0
   -7.5506    6.9516    0.0000 C   0  0  0  0  0  0  0  0  0  0  0  0
   -9.7800    4.9442    0.0000 C   0  0  0  0  0  0  0  0  0  0  0  0
   -7.6616    4.8332    0.0000 C   0  0  0  0  0  0  0  0  0  0  0  0
  -10.5000    2.5981    0.0000 O   0  0  0  0  0  0  0  0  0  0  0  0
   -9.7500    1.2990    0.0000 Si  0  0  0  0  0  4  0  0  0  0  0  0
  -11.0490    0.5490    0.0000 C   0  0  0  0  0  0  0  0  0  0  0  0
   -8.4510    2.0490    0.0000 C   0  0  0  0  0  0  0  0  0  0  0  0
   -9.0000   -0.0000    0.0000 C   0  0  0  0  0  0  0  0  0  0  0  0
  -10.2990   -0.7500    0.0000 C   0  0  0  0  0  0  0  0  0  0  0  0
   -7.7010    0.7500    0.0000 C   0  0  0  0  0  0  0  0  0  0  0  0
   -8.2500   -1.2990    0.0000 C   0  0  0  0  0  0  0  0  0  0  0  0
   -3.0000    2.5981    0.0000 O   0  0  0  0  0  0  0  0  0  0  0  0
   -3.7500    3.8971    0.0000 Si  0  0  0  0  0  4  0  0  0  0  0  0
   -5.0490    3.1471    0.0000 C   0  0  0  0  0  0  0  0  0  0  0  0
   -2.6719    4.7096    0.0000 C   0  0  0  0  0  0  0  0  0  0  0  0
   -4.5000    5.1962    0.0000 C   0  0  0  0  0  0  0  0  0  0  0  0
   -3.2010    5.9462    0.0000 C   0  0  0  0  0  0  0  0  0  0  0  0
   -5.7990    4.4462    0.0000 C   0  0  0  0  0  0  0  0  0  0  0  0
   -5.2500    6.4952    0.0000 C   0  0  0  0  0  0  0  0  0  0  0  0
   -0.7500   -1.2990    0.0000 O   0  0  0  0  0  0  0  0  0  0  0  0
    2.9918   -5.3529    0.0000 C   0  0  0  0  0  0  0  0  0  0  0  0
    3.3037   -6.8202    0.0000 C   0  0  0  0  0  0  0  0  0  0  0  0
    4.6740   -7.4303    0.0000 O   0  0  0  0  0  0  0  0  0  0  0  0
    5.8875   -6.5486    0.0000 Si  0  0  0  0  0  4  0  0  0  0  0  0
    6.7692   -7.7621    0.0000 C   0  0  0  0  0  0  0  0  0  0  0  0
    5.0058   -5.3351    0.0000 C   0  0  0  0  0  0  0  0  0  0  0  0
    7.1010   -5.6669    0.0000 C   0  0  0  0  0  0  0  0  0  0  0  0
    6.2193   -4.4534    0.0000 C   0  0  0  0  0  0  0  0  0  0  0  0
    7.9827   -6.8804    0.0000 C   0  0  0  0  0  0  0  0  0  0  0  0
    8.3145   -4.7852    0.0000 C   0  0  0  0  0  0  0  0  0  0  0  0
   -2.5054  -14.0157    0.0000 C   0  0  0  0  0  0  0  0  0  0  0  0
   -2.1936  -15.4829    0.0000 C   0  0  0  0  0  0  0  0  0  0  0  0
   -3.1973  -16.5977    0.0000 O   0  0  0  0  0  0  0  0  0  0  0  0
   -4.6645  -16.2858    0.0000 Si  0  0  0  0  0  4  0  0  0  0  0  0
   -4.9764  -17.7530    0.0000 C   0  0  0  0  0  0  0  0  0  0  0  0
   -4.3526  -14.8186    0.0000 C   0  0  0  0  0  0  0  0  0  0  0  0
   -6.1317  -15.9739    0.0000 C   0  0  0  0  0  0  0  0  0  0  0  0
   -5.8198  -14.5067    0.0000 C   0  0  0  0  0  0  0  0  0  0  0  0
   -6.4436  -17.4411    0.0000 C   0  0  0  0  0  0  0  0  0  0  0  0
   -7.5989  -15.6621    0.0000 C   0  0  0  0  0  0  0  0  0  0  0  0
  1  2  1  0
  2  3  1  0
  3  4  2  0
  3  5  1  0
  5  6  1  0
  7  6  1  6
  7  8  1  0
  8  9  1  0
  9 10  1  6
 10 11  1  0
 11 12  1  0
 12 13  1  0
 14 13  1  1
 14 15  1  0
 15 16  1  0
 16 17  1  1
 17 18  1  0
 18 19  1  1
 18 20  1  0
 20 21  1  1
 21 22  1  0
 22 23  1  6
 23 24  1  0
 24 25  1  0
 24 26  1  0
 24 27  1  0
 27 28  1  0
 27 29  1  0
 27 30  1  0
 22 31  1  0
 31 32  1  1
 32 33  1  0
 33 34  1  0
 33 35  1  0
 33 36  1  0
 36 37  1  0
 36 38  1  0
 36 39  1  0
 31 40  1  0
 40 41  1  0
 41 42  1  1
 42 43  1  0
 43 44  1  0
 43 45  1  0
 43 46  1  0
 46 47  1  0
 46 48  1  0
 46 49  1  0
 41 50  1  0
 50 51  1  6
 51 52  1  0
 52 53  1  0
 53 54  1  0
 53 55  2  0
 55 56  1  0
 56 57  1  6
 58 57  1  1
 58 59  1  0
 59 60  1  0
 60 61  1  0
 60 62  1  0
 60 63  1  0
 63 64  1  0
 63 65  1  0
 63 66  1  0
 58 67  1  0
 67 68  1  1
 68 69  1  0
 69 70  1  1
 71 70  1  6
 71 72  1  0
 72 73  1  0
 73 74  1  6
 74 75  1  0
 75 76  1  0
 75 77  2  0
 77 78  1  0
 78 79  1  1
 79 80  1  0
 80 81  2  0
 81 82  1  0
 82 83  1  6
 84 83  1  1
 84 85  1  0
 85 86  1  0
 86 87  1  0
 87 88  1  0
 88 89  1  6
 89 90  1  0
 90 91  1  0
 90 92  1  0
 90 93  1  0
 93 94  1  0
 93 95  1  0
 93 96  1  0
 88 97  1  0
 97 98  1  6
 98 99  1  0
 99100  1  0
 99101  1  0
 99102  1  0
102103  1  0
102104  1  0
102105  1  0
 82106  1  0
106107  1  0
107108  1  0
107109  1  0
107110  1  0
110111  1  0
110112  1  0
110113  1  0
 78114  1  0
114115  1  0
115116  1  0
115117  1  0
115118  1  0
118119  1  0
118120  1  0
118121  1  0
 73122  1  0
122123  1  0
123124  1  1
124125  1  0
125126  1  0
125127  1  0
125128  1  0
128129  1  0
128130  1  0
128131  1  0
123132  1  0
132133  1  1
133134  1  0
134135  1  0
134136  1  0
134137  1  0
137138  1  0
137139  1  0
137140  1  0
 69141  1  0
141142  1  0
142143  1  1
143144  1  0
144145  1  0
144146  1  0
144147  1  0
147148  1  0
147149  1  0
147150  1  0
 56151  1  0
151152  1  0
152153  1  0
152154  1  0
152155  1  0
155156  1  0
155157  1  0
155158  1  0
 50159  1  0
159160  1  0
160161  1  0
160162  1  0
160163  1  0
163164  1  0
163165  1  0
163166  1  0
 40167  1  6
 16168  1  0
168169  1  0
169170  1  1
170171  1  0
171172  1  0
171173  1  0
171174  1  0
174175  1  0
174176  1  0
174177  1  0
  9178  1  0
178179  1  0
179180  1  6
180181  1  0
181182  1  0
181183  1  0
181184  1  0
184185  1  0
184186  1  0
184187  1  0
179  7  1  0
169 14  1  0
167 20  1  0
142 67  1  0
132 71  1  0
 97 84  1  0
M  END
$$$$
40-epi-40
     RDKit          2D

193199  0  0  0  0  0  0  0  0999 V2000
   -6.6917   -9.4533    0.0000 C   0  0  0  0  0  0  0  0  0  0  0  0
   -5.4782  -10.3350    0.0000 C   0  0  0  0  0  0  0  0  0  0  0  0
   -4.1079   -9.7249    0.0000 C   0  0  0  0  0  0  0  0  0  0  0  0
   -3.9511   -8.2331    0.0000 C   0  0  0  0  0  0  0  0  0  0  0  0
   -2.5808   -7.6230    0.0000 C   0  0  0  0  0  0  0  0  0  0  0  0
   -1.3672   -8.5047    0.0000 C   0  0  0  0  0  0  0  0  0  0  0  0
   -1.5240   -9.9965    0.0000 O   0  0  0  0  0  0  0  0  0  0  0  0
   -2.8943  -10.6066    0.0000 Si  0  0  0  0  0  4  0  0  0  0  0  0
   -2.2842  -11.9769    0.0000 C   0  0  0  0  0  0  0  0  0  0  0  0
   -3.5045   -9.2363    0.0000 C   0  0  0  0  0  0  0  0  0  0  0  0
   -4.2647  -11.2167    0.0000 C   0  0  0  0  0  0  0  0  0  0  0  0
   -3.6546  -12.5870    0.0000 C   0  0  0  0  0  0  0  0  0  0  0  0
   -4.8748   -9.8464    0.0000 C   0  0  0  0  0  0  0  0  0  0  0  0
   -4.8928  -11.7075    0.0000 C   0  0  0  0  0  0  0  0  0  0  0  0
    0.0031   -7.8946    0.0000 C   0  0  0  0  0  0  0  0  0  0  0  0
    1.3021   -8.6446    0.0000 O   0  0  0  0  0  0  0  0  0  0  0  0
    2.4168   -7.6409    0.0000 C   0  0  0  0  0  0  0  0  0  0  0  0
    3.8841   -7.9528    0.0000 C   0  0  0  0  0  0  0  0  0  0  0  0
    4.3476   -9.3793    0.0000 C   0  0  0  0  0  0  0  0  0  0  0  0
    5.8148   -9.6912    0.0000 O   0  0  0  0  0  0  0  0  0  0  0  0
    6.2783  -11.1178    0.0000 C   0  0  0  0  0  0  0  0  0  0  0  0
    7.7456  -11.4297    0.0000 C   0  0  0  0  0  0  0  0  0  0  0  0
    8.7492  -10.3149    0.0000 C   0  0  0  0  0  0  0  0  0  0  0  0
    8.2857   -8.8884    0.0000 C   0  0  0  0  0  0  0  0  0  0  0  0
   10.2165  -10.6268    0.0000 C   0  0  0  0  0  0  0  0  0  0  0  0
   11.2202   -9.5121    0.0000 C   0  0  0  0  0  0  0  0  0  0  0  0
   12.6874   -9.8240    0.0000 C   0  0  0  0  0  0  0  0  0  0  0  0
   13.6911   -8.7092    0.0000 C   0  0  0  0  0  0  0  0  0  0  0  0
   15.1583   -9.0211    0.0000 C   0  0  0  0  0  0  0  0  0  0  0  0
   16.1620   -7.9064    0.0000 C   0  0  0  0  0  0  0  0  0  0  0  0
   17.6292   -8.2183    0.0000 C   0  0  0  0  0  0  0  0  0  0  0  0
   18.0927   -9.6449    0.0000 C   0  0  0  0  0  0  0  0  0  0  0  0
   17.0891  -10.7596    0.0000 O   0  0  0  0  0  0  0  0  0  0  0  0
   17.5526  -12.1862    0.0000 C   0  0  0  0  0  0  0  0  0  0  0  0
   19.0198  -12.4980    0.0000 C   0  0  0  0  0  0  0  0  0  0  0  0
   20.0235  -11.3833    0.0000 C   0  0  0  0  0  0  0  0  0  0  0  0
   21.4907  -11.6952    0.0000 O   0  0  0  0  0  0  0  0  0  0  0  0
   21.9542  -13.1218    0.0000 Si  0  0  0  0  0  4  0  0  0  0  0  0
   23.3808  -12.6582    0.0000 C   0  0  0  0  0  0  0  0  0  0  0  0
   20.5277  -13.5853    0.0000 C   0  0  0  0  0  0  0  0  0  0  0  0
   22.4178  -14.5483    0.0000 C   0  0  0  0  0  0  0  0  0  0  0  0
   20.9912  -15.0119    0.0000 C   0  0  0  0  0  0  0  0  0  0  0  0
   23.8444  -14.0848    0.0000 C   0  0  0  0  0  0  0  0  0  0  0  0
   22.8813  -15.9749    0.0000 C   0  0  0  0  0  0  0  0  0  0  0  0
   19.5600   -9.9567    0.0000 C   0  0  0  0  0  0  0  0  0  0  0  0
   20.5637   -8.8420    0.0000 O   0  0  0  0  0  0  0  0  0  0  0  0
   22.0309   -9.1539    0.0000 Si  0  0  0  0  0  4  0  0  0  0  0  0
   22.3428   -7.6866    0.0000 C   0  0  0  0  0  0  0  0  0  0  0  0
   21.7190  -10.6211    0.0000 C   0  0  0  0  0  0  0  0  0  0  0  0
   23.4981   -9.4657    0.0000 C   0  0  0  0  0  0  0  0  0  0  0  0
   23.8100   -7.9985    0.0000 C   0  0  0  0  0  0  0  0  0  0  0  0
   23.1862  -10.9330    0.0000 C   0  0  0  0  0  0  0  0  0  0  0  0
   24.9653   -9.7776    0.0000 C   0  0  0  0  0  0  0  0  0  0  0  0
   15.6985   -6.4798    0.0000 O   0  0  0  0  0  0  0  0  0  0  0  0
   16.7022   -5.3651    0.0000 Si  0  0  0  0  0  4  0  0  0  0  0  0
   15.5875   -4.3614    0.0000 C   0  0  0  0  0  0  0  0  0  0  0  0
   17.8169   -6.3688    0.0000 C   0  0  0  0  0  0  0  0  0  0  0  0
   17.7059   -4.2504    0.0000 C   0  0  0  0  0  0  0  0  0  0  0  0
   16.5911   -3.2467    0.0000 C   0  0  0  0  0  0  0  0  0  0  0  0
   18.8206   -5.2541    0.0000 C   0  0  0  0  0  0  0  0  0  0  0  0
   18.7096   -3.1357    0.0000 C   0  0  0  0  0  0  0  0  0  0  0  0
   10.7566   -8.0855    0.0000 O   0  0  0  0  0  0  0  0  0  0  0  0
   11.7603   -6.9708    0.0000 Si  0  0  0  0  0  4  0  0  0  0  0  0
   10.6456   -5.9671    0.0000 C   0  0  0  0  0  0  0  0  0  0  0  0
   12.8751   -7.9745    0.0000 C   0  0  0  0  0  0  0  0  0  0  0  0
   12.7640   -5.8561    0.0000 C   0  0  0  0  0  0  0  0  0  0  0  0
   11.6493   -4.8524    0.0000 C   0  0  0  0  0  0  0  0  0  0  0  0
   13.8787   -6.8598    0.0000 C   0  0  0  0  0  0  0  0  0  0  0  0
   13.7677   -4.7414    0.0000 C   0  0  0  0  0  0  0  0  0  0  0  0
    5.2746  -12.2325    0.0000 C   0  0  0  0  0  0  0  0  0  0  0  0
    3.8074  -11.9206    0.0000 C   0  0  0  0  0  0  0  0  0  0  0  0
    2.8037  -13.0354    0.0000 O   0  0  0  0  0  0  0  0  0  0  0  0
    3.2672  -14.4619    0.0000 Si  0  0  0  0  0  4  0  0  0  0  0  0
    1.8407  -14.9255    0.0000 C   0  0  0  0  0  0  0  0  0  0  0  0
    4.6938  -13.9984    0.0000 C   0  0  0  0  0  0  0  0  0  0  0  0
    3.7308  -15.8885    0.0000 C   0  0  0  0  0  0  0  0  0  0  0  0
    5.1574  -15.4250    0.0000 C   0  0  0  0  0  0  0  0  0  0  0  0
    2.3042  -16.3521    0.0000 C   0  0  0  0  0  0  0  0  0  0  0  0
    4.1943  -17.3151    0.0000 C   0  0  0  0  0  0  0  0  0  0  0  0
    3.3439  -10.4941    0.0000 C   0  0  0  0  0  0  0  0  0  0  0  0
    1.8767  -10.1822    0.0000 O   0  0  0  0  0  0  0  0  0  0  0  0
    0.8730  -11.2969    0.0000 Si  0  0  0  0  0  4  0  0  0  0  0  0
   -0.2417  -10.2932    0.0000 C   0  0  0  0  0  0  0  0  0  0  0  0
    1.9877  -12.3006    0.0000 C   0  0  0  0  0  0  0  0  0  0  0  0
   -0.1307  -12.4116    0.0000 C   0  0  0  0  0  0  0  0  0  0  0  0
   -1.2454  -11.4079    0.0000 C   0  0  0  0  0  0  0  0  0  0  0  0
    0.9840  -13.4153    0.0000 C   0  0  0  0  0  0  0  0  0  0  0  0
   -1.1344  -13.5263    0.0000 C   0  0  0  0  0  0  0  0  0  0  0  0
    1.8067   -6.2706    0.0000 C   0  0  0  0  0  0  0  0  0  0  0  0
    0.3149   -6.4274    0.0000 C   0  0  0  0  0  0  0  0  0  0  0  0
   -0.6887   -5.3127    0.0000 O   0  0  0  0  0  0  0  0  0  0  0  0
   -0.2252   -3.8861    0.0000 Si  0  0  0  0  0  4  0  0  0  0  0  0
   -1.6518   -3.4225    0.0000 C   0  0  0  0  0  0  0  0  0  0  0  0
    1.2014   -4.3496    0.0000 C   0  0  0  0  0  0  0  0  0  0  0  0
    0.2383   -2.4595    0.0000 C   0  0  0  0  0  0  0  0  0  0  0  0
    1.6649   -2.9230    0.0000 C   0  0  0  0  0  0  0  0  0  0  0  0
   -1.1883   -1.9960    0.0000 C   0  0  0  0  0  0  0  0  0  0  0  0
    0.7018   -1.0329    0.0000 C   0  0  0  0  0  0  0  0  0  0  0  0
   -5.1646   -7.3514    0.0000 O   0  0  0  0  0  0  0  0  0  0  0  0
   -6.5349   -7.9615    0.0000 Si  0  0  0  0  0  4  0  0  0  0  0  0
   -7.1450   -6.5912    0.0000 C   0  0  0  0  0  0  0  0  0  0  0  0
   -5.9248   -9.3319    0.0000 C   0  0  0  0  0  0  0  0  0  0  0  0
   -7.9052   -8.5717    0.0000 C   0  0  0  0  0  0  0  0  0  0  0  0
   -7.2951   -9.9420    0.0000 C   0  0  0  0  0  0  0  0  0  0  0  0
   -8.5153   -7.2013    0.0000 C   0  0  0  0  0  0  0  0  0  0  0  0
   -8.9510   -8.8913    0.0000 C   0  0  0  0  0  0  0  0  0  0  0  0
   -5.6350  -11.8268    0.0000 C   0  0  0  0  0  0  0  0  0  0  0  0
   -7.0053  -12.4369    0.0000 C   0  0  0  0  0  0  0  0  0  0  0  0
   -7.1621  -13.9287    0.0000 C   0  0  0  0  0  0  0  0  0  0  0  0
   -5.9486  -14.8104    0.0000 O   0  0  0  0  0  0  0  0  0  0  0  0
   -6.1054  -16.3021    0.0000 Si  0  0  0  0  0  4  0  0  0  0  0  0
   -4.6958  -16.8152    0.0000 C   0  0  0  0  0  0  0  0  0  0  0  0
   -7.5971  -16.1453    0.0000 C   0  0  0  0  0  0  0  0  0  0  0  0
   -6.2622  -17.7939    0.0000 C   0  0  0  0  0  0  0  0  0  0  0  0
   -4.8526  -18.3070    0.0000 C   0  0  0  0  0  0  0  0  0  0  0  0
   -7.7539  -17.6371    0.0000 C   0  0  0  0  0  0  0  0  0  0  0  0
   -6.1512  -18.5833    0.0000 C   0  0  0  0  0  0  0  0  0  0  0  0
   -8.5324  -14.5388    0.0000 C   0  0  0  0  0  0  0  0  0  0  0  0
   -9.7459  -13.6571    0.0000 O   0  0  0  0  0  0  0  0  0  0  0  0
   -9.5891  -12.1653    0.0000 Si  0  0  0  0  0  4  0  0  0  0  0  0
  -11.0809  -12.0085    0.0000 C   0  0  0  0  0  0  0  0  0  0  0  0
   -8.0974  -12.3221    0.0000 C   0  0  0  0  0  0  0  0  0  0  0  0
   -9.4324  -10.6735    0.0000 C   0  0  0  0  0  0  0  0  0  0  0  0
  -10.9241  -10.5167    0.0000 C   0  0  0  0  0  0  0  0  0  0  0  0
   -7.9406  -10.8303    0.0000 C   0  0  0  0  0  0  0  0  0  0  0  0
   -9.4515   -9.5802    0.0000 C   0  0  0  0  0  0  0  0  0  0  0  0
   -8.6892  -16.0306    0.0000 C   0  0  0  0  0  0  0  0  0  0  0  0
  -10.0595  -16.6407    0.0000 O   0  0  0  0  0  0  0  0  0  0  0  0
  -10.2163  -18.1325    0.0000 C   0  0  0  0  0  0  0  0  0  0  0  0
  -11.5866  -18.7426    0.0000 C   0  0  0  0  0  0  0  0  0  0  0  0
  -11.7434  -20.2343    0.0000 O   0  0  0  0  0  0  0  0  0  0  0  0
  -12.8002  -17.8609    0.0000 C   0  0  0  0  0  0  0  0  0  0  0  0
  -14.1705  -18.4710    0.0000 C   0  0  0  0  0  0  0  0  0  0  0  0
  -14.4823  -19.9382    0.0000 C   0  0  0  0  0  0  0  0  0  0  0  0
  -15.9741  -20.0950    0.0000 C   0  0  0  0  0  0  0  0  0  0  0  0
  -16.7241  -21.3940    0.0000 O   0  0  0  0  0  0  0  0  0  0  0  0
  -18.2241  -21.3940    0.0000 Si  0  0  0  0  0  4  0  0  0  0  0  0
  -18.2241  -22.8940    0.0000 C   0  0  0  0  0  0  0  0  0  0  0  0
  -18.2241  -19.8940    0.0000 C   0  0  0  0  0  0  0  0  0  0  0  0
  -19.7241  -21.3940    0.0000 C   0  0  0  0  0  0  0  0  0  0  0  0
  -19.7241  -19.8940    0.0000 C   0  0  0  0  0  0  0  0  0  0  0  0
  -19.7241  -22.8940    0.0000 C   0  0  0  0  0  0  0  0  0  0  0  0
  -21.2241  -21.3940    0.0000 C   0  0  0  0  0  0  0  0  0  0  0  0
  -16.5842  -18.7247    0.0000 C   0  0  0  0  0  0  0  0  0  0  0  0
  -18.0515  -18.4128    0.0000 C   0  0  0  0  0  0  0  0  0  0  0  0
  -18.5150  -16.9862    0.0000 C   0  0  0  0  0  0  0  0  0  0  0  0
  -19.9822  -16.6744    0.0000 C   0  0  0  0  0  0  0  0  0  0  0  0
  -20.4457  -15.2478    0.0000 C   0  0  0  0  0  0  0  0  0  0  0  0
  -21.9129  -14.9359    0.0000 C   0  0  0  0  0  0  0  0  0  0  0  0
  -23.0277  -15.9396    0.0000 C   0  0  0  0  0  0  0  0  0  0  0  0
  -24.3267  -15.1896    0.0000 C   0  0  0  0  0  0  0  0  0  0  0  0
  -25.6970  -15.7997    0.0000 O   0  0  0  0  0  0  0  0  0  0  0  0
  -26.9105  -14.9180    0.0000 Si  0  0  0  0  0  4  0  0  0  0  0  0
  -27.7922  -16.1316    0.0000 C   0  0  0  0  0  0  0  0  0  0  0  0
  -26.0289  -13.7045    0.0000 C   0  0  0  0  0  0  0  0  0  0  0  0
  -28.1241  -14.0364    0.0000 C   0  0  0  0  0  0  0  0  0  0  0  0
  -27.2424  -12.8228    0.0000 C   0  0  0  0  0  0  0  0  0  0  0  0
  -29.0058  -15.2499    0.0000 C   0  0  0  0  0  0  0  0  0  0  0  0
  -29.3376  -13.1547    0.0000 C   0  0  0  0  0  0  0  0  0  0  0  0
  -24.0148  -13.7224    0.0000 C   0  0  0  0  0  0  0  0  0  0  0  0
  -25.0185  -12.6077    0.0000 C   0  0  0  0  0  0  0  0  0  0  0  0
  -24.5550  -11.1811    0.0000 C   0  0  0  0  0  0  0  0  0  0  0  0
  -25.5587  -10.0664    0.0000 C   0  0  0  0  0  0  0  0  0  0  0  0
  -25.0952   -8.6398    0.0000 O   0  0  0  0  0  0  0  0  0  0  0  0
  -27.0259  -10.3782    0.0000 S   0  0  0  0  0  0  0  0  0  0  0  0
  -28.0296   -9.2635    0.0000 C   0  0  0  0  0  0  0  0  0  0  0  0
  -27.5661   -7.8369    0.0000 C   0  0  0  0  0  0  0  0  0  0  0  0
  -28.5698   -6.7222    0.0000 C   0  0  0  0  0  0  0  0  0  0  0  0
  -30.0370   -7.0341    0.0000 C   0  0  0  0  0  0  0  0  0  0  0  0
  -31.0407   -5.9194    0.0000 C   0  0  0  0  0  0  0  0  0  0  0  0
  -30.5005   -8.4607    0.0000 C   0  0  0  0  0  0  0  0  0  0  0  0
  -29.4968   -9.5754    0.0000 C   0  0  0  0  0  0  0  0  0  0  0  0
  -22.5231  -13.5656    0.0000 O   0  0  0  0  0  0  0  0  0  0  0  0
  -15.4695  -17.7210    0.0000 O   0  0  0  0  0  0  0  0  0  0  0  0
   -9.0028  -19.0141    0.0000 C   0  0  0  0  0  0  0  0  0  0  0  0
   -7.6325  -18.4040    0.0000 C   0  0  0  0  0  0  0  0  0  0  0  0
   -6.4189  -19.2857    0.0000 O   0  0  0  0  0  0  0  0  0  0  0  0
   -6.5757  -20.7775    0.0000 Si  0  0  0  0  0  4  0  0  0  0  0  0
   -5.0840  -20.9343    0.0000 C   0  0  0  0  0  0  0  0  0  0  0  0
   -8.0675  -20.6207    0.0000 C   0  0  0  0  0  0  0  0  0  0  0  0
   -6.7325  -22.2693    0.0000 C   0  0  0  0  0  0  0  0  0  0  0  0
   -8.2243  -22.1125    0.0000 C   0  0  0  0  0  0  0  0  0  0  0  0
   -5.2407  -22.4261    0.0000 C   0  0  0  0  0  0  0  0  0  0  0  0
   -6.8893  -23.7611    0.0000 C   0  0  0  0  0  0  0  0  0  0  0  0
   -7.4757  -16.9122    0.0000 C   0  0  0  0  0  0  0  0  0  0  0  0
   -6.1054  -16.3021    0.0000 O   0  0  0  0  0  0  0  0  0  0  0  0
   -4.8918  -17.1838    0.0000 Si  0  0  0  0  0  4  0  0  0  0  0  0
   -4.0102  -15.9703    0.0000 C   0  0  0  0  0  0  0  0  0  0  0  0
   -5.7735  -18.3973    0.0000 C   0  0  0  0  0  0  0  0  0  0  0  0
   -3.6783  -18.0655    0.0000 C   0  0  0  0  0  0  0  0  0  0  0  0
   -2.7966  -16.8520    0.0000 C   0  0  0  0  0  0  0  0  0  0  0  0
   -4.5600  -19.2790    0.0000 C   0  0  0  0  0  0  0  0  0  0  0  0
   -2.4648  -18.9472    0.0000 C   0  0  0  0  0  0  0  0  0  0  0  0
  1  2  1  0
  2  3  2  0
  3  4  1  0
  4  5  1  6
  6  5  1  6
  6  7  1  0
  7  8  1  0
  8  9  1  0
  8 10  1  0
  8 11  1  0
 11 12  1  0
 11 13  1  0
 11 14  1  0
  6 15  1  0
 15 16  1  6
 16 17  1  0
 17 18  1  6
 19 18  1  1
 19 20  1  0
 20 21  1  0
 21 22  1  1
 22 23  1  0
 23 24  1  0
 23 25  2  0
 25 26  1  0
 26 27  1  6
 27 28  1  0
 28 29  2  0
 29 30  1  0
 30 31  1  1
 32 31  1  6
 32 33  1  0
 33 34  1  0
 34 35  1  0
 35 36  1  0
 36 37  1  1
 37 38  1  0
 38 39  1  0
 38 40  1  0
 38 41  1  0
 41 42  1  0
 41 43  1  0
 41 44  1  0
 36 45  1  0
 45 46  1  1
 46 47  1  0
 47 48  1  0
 47 49  1  0
 47 50  1  0
 50 51  1  0
 50 52  1  0
 50 53  1  0
 30 54  1  0
 54 55  1  0
 55 56  1  0
 55 57  1  0
 55 58  1  0
 58 59  1  0
 58 60  1  0
 58 61  1  0
 26 62  1  0
 62 63  1  0
 63 64  1  0
 63 65  1  0
 63 66  1  0
 66 67  1  0
 66 68  1  0
 66 69  1  0
 21 70  1  0
 70 71  1  0
 71 72  1  6
 72 73  1  0
 73 74  1  0
 73 75  1  0
 73 76  1  0
 76 77  1  0
 76 78  1  0
 76 79  1  0
 71 80  1  0
 80 81  1  6
 81 82  1  0
 82 83  1  0
 82 84  1  0
 82 85  1  0
 85 86  1  0
 85 87  1  0
 85 88  1  0
 17 89  1  0
 89 90  1  0
 90 91  1  6
 91 92  1  0
 92 93  1  0
 92 94  1  0
 92 95  1  0
 95 96  1  0
 95 97  1  0
 95 98  1  0
  4 99  1  0
 99100  1  0
100101  1  0
100102  1  0
100103  1  0
103104  1  0
103105  1  0
103106  1  0
  2107  1  0
107108  1  0
109108  1  6
109110  1  0
110111  1  0
111112  1  0
111113  1  0
111114  1  0
114115  1  0
114116  1  0
114117  1  0
109118  1  0
118119  1  1
119120  1  0
120121  1  0
120122  1  0
120123  1  0
123124  1  0
123125  1  0
123126  1  0
118127  1  0
127128  1  6
128129  1  0
129130  1  0
130131  1  1
130132  1  0
133132  1  1
133134  1  0
134135  1  0
135136  1  1
136137  1  0
137138  1  0
137139  1  0
137140  1  0
140141  1  0
140142  1  0
140143  1  0
135144  1  0
144145  1  1
145146  1  0
146147  1  0
147148  1  0
149148  1  1
149150  1  0
150151  1  0
151152  1  1
152153  1  0
153154  1  0
153155  1  0
153156  1  0
156157  1  0
156158  1  0
156159  1  0
151160  1  0
160161  1  1
161162  1  0
162163  1  0
163164  2  0
163165  1  0
165166  1  0
166167  1  0
167168  2  0
168169  1  0
169170  1  0
169171  2  0
171172  1  0
160173  1  0
144174  1  0
129175  1  1
175176  1  0
176177  1  6
177178  1  0
178179  1  0
178180  1  0
178181  1  0
181182  1  0
181183  1  0
181184  1  0
176185  1  0
185186  1  1
186187  1  0
187188  1  0
187189  1  0
187190  1  0
190191  1  0
190192  1  0
190193  1  0
 90 15  1  0
185127  1  0
 80 19  1  0
174133  1  0
 45 32  1  0
173149  1  0
172166  2  0
M  END
$$$$
40-epi-42
     RDKit          2D

240249  0  0  0  0  0  0  0  0999 V2000
    3.0000    0.0000    0.0000 C   0  0  0  0  0  0  0  0  0  0  0  0
    1.5000   -0.0000    0.0000 C   0  0  0  0  0  0  0  0  0  0  0  0
    0.7500   -1.2990    0.0000 C   0  0  0  0  0  0  0  0  0  0  0  0
   -0.7500   -1.2990    0.0000 C   0  0  0  0  0  0  0  0  0  0  0  0
   -1.5000   -2.5981    0.0000 C   0  0  0  0  0  0  0  0  0  0  0  0
   -3.0000   -2.5981    0.0000 C   0  0  0  0  0  0  0  0  0  0  0  0
   -3.7500   -1.2990    0.0000 O   0  0  0  0  0  0  0  0  0  0  0  0
   -3.7500   -3.8971    0.0000 C   0  0  0  0  0  0  0  0  0  0  0  0
   -5.2500   -3.8971    0.0000 C   0  0  0  0  0  0  0  0  0  0  0  0
   -6.0000   -5.1962    0.0000 C   0  0  0  0  0  0  0  0  0  0  0  0
   -7.5000   -5.1962    0.0000 C   0  0  0  0  0  0  0  0  0  0  0  0
   -8.2500   -3.8971    0.0000 O   0  0  0  0  0  0  0  0  0  0  0  0
   -8.2500   -6.4952    0.0000 C   0  0  0  0  0  0  0  0  0  0  0  0
   -9.7500   -6.4952    0.0000 C   0  0  0  0  0  0  0  0  0  0  0  0
  -10.5000   -7.7942    0.0000 C   0  0  0  0  0  0  0  0  0  0  0  0
   -9.8899   -9.1645    0.0000 O   0  0  0  0  0  0  0  0  0  0  0  0
  -11.0046  -10.1682    0.0000 C   0  0  0  0  0  0  0  0  0  0  0  0
  -10.8478  -11.6600    0.0000 C   0  0  0  0  0  0  0  0  0  0  0  0
  -12.0613  -12.5417    0.0000 C   0  0  0  0  0  0  0  0  0  0  0  0
  -11.9046  -14.0335    0.0000 C   0  0  0  0  0  0  0  0  0  0  0  0
  -13.1181  -14.9152    0.0000 C   0  0  0  0  0  0  0  0  0  0  0  0
  -12.9613  -16.4069    0.0000 C   0  0  0  0  0  0  0  0  0  0  0  0
  -11.6622  -17.1569    0.0000 O   0  0  0  0  0  0  0  0  0  0  0  0
  -11.9741  -18.6242    0.0000 C   0  0  0  0  0  0  0  0  0  0  0  0
  -10.9704  -19.7389    0.0000 C   0  0  0  0  0  0  0  0  0  0  0  0
  -11.4339  -21.1655    0.0000 C   0  0  0  0  0  0  0  0  0  0  0  0
  -12.9012  -21.4773    0.0000 O   0  0  0  0  0  0  0  0  0  0  0  0
  -10.4302  -22.2802    0.0000 C   0  0  0  0  0  0  0  0  0  0  0  0
  -10.8938  -23.7068    0.0000 C   0  0  0  0  0  0  0  0  0  0  0  0
   -9.8901  -24.8215    0.0000 C   0  0  0  0  0  0  0  0  0  0  0  0
  -10.3536  -26.2481    0.0000 O   0  0  0  0  0  0  0  0  0  0  0  0
  -11.8208  -26.5599    0.0000 Si  0  0  0  0  0  4  0  0  0  0  0  0
  -11.5090  -28.0272    0.0000 C   0  0  0  0  0  0  0  0  0  0  0  0
  -12.1327  -25.0927    0.0000 C   0  0  0  0  0  0  0  0  0  0  0  0
  -13.2880  -26.8718    0.0000 C   0  0  0  0  0  0  0  0  0  0  0  0
  -13.5999  -25.4046    0.0000 C   0  0  0  0  0  0  0  0  0  0  0  0
  -12.9762  -28.3390    0.0000 C   0  0  0  0  0  0  0  0  0  0  0  0
  -14.7553  -27.1837    0.0000 C   0  0  0  0  0  0  0  0  0  0  0  0
   -8.4229  -24.5096    0.0000 C   0  0  0  0  0  0  0  0  0  0  0  0
   -7.4192  -25.6243    0.0000 O   0  0  0  0  0  0  0  0  0  0  0  0
   -7.8827  -27.0509    0.0000 Si  0  0  0  0  0  4  0  0  0  0  0  0
   -6.4561  -27.5144    0.0000 C   0  0  0  0  0  0  0  0  0  0  0  0
   -9.3093  -26.5874    0.0000 C   0  0  0  0  0  0  0  0  0  0  0  0
   -8.3462  -28.4775    0.0000 C   0  0  0  0  0  0  0  0  0  0  0  0
   -6.9196  -28.9410    0.0000 C   0  0  0  0  0  0  0  0  0  0  0  0
   -9.7728  -28.0140    0.0000 C   0  0  0  0  0  0  0  0  0  0  0  0
   -8.8097  -29.9041    0.0000 C   0  0  0  0  0  0  0  0  0  0  0  0
   -7.9593  -23.0830    0.0000 C   0  0  0  0  0  0  0  0  0  0  0  0
   -6.4921  -22.7712    0.0000 C   0  0  0  0  0  0  0  0  0  0  0  0
   -5.4884  -23.8859    0.0000 O   0  0  0  0  0  0  0  0  0  0  0  0
   -4.0212  -23.5740    0.0000 Si  0  0  0  0  0  4  0  0  0  0  0  0
   -3.7093  -25.0412    0.0000 C   0  0  0  0  0  0  0  0  0  0  0  0
   -4.3331  -22.1068    0.0000 C   0  0  0  0  0  0  0  0  0  0  0  0
   -2.5540  -23.2622    0.0000 C   0  0  0  0  0  0  0  0  0  0  0  0
   -2.8658  -21.7949    0.0000 C   0  0  0  0  0  0  0  0  0  0  0  0
   -2.2421  -24.7294    0.0000 C   0  0  0  0  0  0  0  0  0  0  0  0
   -1.0867  -22.9503    0.0000 C   0  0  0  0  0  0  0  0  0  0  0  0
   -6.0286  -21.3446    0.0000 C   0  0  0  0  0  0  0  0  0  0  0  0
   -4.5614  -21.0327    0.0000 C   0  0  0  0  0  0  0  0  0  0  0  0
   -4.0978  -19.6061    0.0000 C   0  0  0  0  0  0  0  0  0  0  0  0
   -2.6306  -19.2943    0.0000 C   0  0  0  0  0  0  0  0  0  0  0  0
   -1.6269  -20.4090    0.0000 C   0  0  0  0  0  0  0  0  0  0  0  0
   -2.1671  -17.8677    0.0000 C   0  0  0  0  0  0  0  0  0  0  0  0
   -0.6999  -17.5558    0.0000 C   0  0  0  0  0  0  0  0  0  0  0  0
   -0.2363  -16.1292    0.0000 C   0  0  0  0  0  0  0  0  0  0  0  0
    1.2309  -15.8174    0.0000 C   0  0  0  0  0  0  0  0  0  0  0  0
    2.2346  -16.9321    0.0000 O   0  0  0  0  0  0  0  0  0  0  0  0
    3.7018  -16.6202    0.0000 Si  0  0  0  0  0  4  0  0  0  0  0  0
    4.0137  -18.0874    0.0000 C   0  0  0  0  0  0  0  0  0  0  0  0
    3.3899  -15.1530    0.0000 C   0  0  0  0  0  0  0  0  0  0  0  0
    5.1690  -16.3083    0.0000 C   0  0  0  0  0  0  0  0  0  0  0  0
    5.2162  -14.9592    0.0000 C   0  0  0  0  0  0  0  0  0  0  0  0
    5.4809  -17.7756    0.0000 C   0  0  0  0  0  0  0  0  0  0  0  0
    6.6633  -16.1776    0.0000 C   0  0  0  0  0  0  0  0  0  0  0  0
    1.6944  -14.3908    0.0000 C   0  0  0  0  0  0  0  0  0  0  0  0
    0.8127  -13.1773    0.0000 O   0  0  0  0  0  0  0  0  0  0  0  0
    1.6944  -11.9637    0.0000 C   0  0  0  0  0  0  0  0  0  0  0  0
    1.2309  -10.5371    0.0000 C   0  0  0  0  0  0  0  0  0  0  0  0
    2.2346   -9.4224    0.0000 C   0  0  0  0  0  0  0  0  0  0  0  0
    3.7018   -9.7343    0.0000 O   0  0  0  0  0  0  0  0  0  0  0  0
    4.7055   -8.6196    0.0000 C   0  0  0  0  0  0  0  0  0  0  0  0
    6.1727   -8.9314    0.0000 C   0  0  0  0  0  0  0  0  0  0  0  0
    7.1764   -7.8167    0.0000 C   0  0  0  0  0  0  0  0  0  0  0  0
    6.7129   -6.3901    0.0000 C   0  0  0  0  0  0  0  0  0  0  0  0
    8.6436   -8.1286    0.0000 C   0  0  0  0  0  0  0  0  0  0  0  0
    9.6473   -7.0139    0.0000 C   0  0  0  0  0  0  0  0  0  0  0  0
   11.1145   -7.3257    0.0000 C   0  0  0  0  0  0  0  0  0  0  0  0
   12.1182   -6.2110    0.0000 C   0  0  0  0  0  0  0  0  0  0  0  0
   13.5855   -6.5229    0.0000 C   0  0  0  0  0  0  0  0  0  0  0  0
   14.5892   -5.4082    0.0000 C   0  0  0  0  0  0  0  0  0  0  0  0
   16.0564   -5.7200    0.0000 C   0  0  0  0  0  0  0  0  0  0  0  0
   16.5199   -7.1466    0.0000 C   0  0  0  0  0  0  0  0  0  0  0  0
   15.5162   -8.2613    0.0000 O   0  0  0  0  0  0  0  0  0  0  0  0
   15.9797   -9.6879    0.0000 C   0  0  0  0  0  0  0  0  0  0  0  0
   17.4470   -9.9998    0.0000 C   0  0  0  0  0  0  0  0  0  0  0  0
   18.4507   -8.8851    0.0000 C   0  0  0  0  0  0  0  0  0  0  0  0
   19.9179   -9.1969    0.0000 O   0  0  0  0  0  0  0  0  0  0  0  0
   20.3814  -10.6235    0.0000 Si  0  0  0  0  0  4  0  0  0  0  0  0
   21.8080  -10.1600    0.0000 C   0  0  0  0  0  0  0  0  0  0  0  0
   18.9548  -11.0871    0.0000 C   0  0  0  0  0  0  0  0  0  0  0  0
   20.8449  -12.0501    0.0000 C   0  0  0  0  0  0  0  0  0  0  0  0
   19.4183  -12.5136    0.0000 C   0  0  0  0  0  0  0  0  0  0  0  0
   22.2715  -11.5866    0.0000 C   0  0  0  0  0  0  0  0  0  0  0  0
   21.3085  -13.4767    0.0000 C   0  0  0  0  0  0  0  0  0  0  0  0
   17.9871   -7.4585    0.0000 C   0  0  0  0  0  0  0  0  0  0  0  0
   18.9908   -6.3438    0.0000 O   0  0  0  0  0  0  0  0  0  0  0  0
   20.4580   -6.6556    0.0000 Si  0  0  0  0  0  4  0  0  0  0  0  0
   20.7699   -5.1884    0.0000 C   0  0  0  0  0  0  0  0  0  0  0  0
   20.1462   -8.1229    0.0000 C   0  0  0  0  0  0  0  0  0  0  0  0
   21.9253   -6.9675    0.0000 C   0  0  0  0  0  0  0  0  0  0  0  0
   22.2371   -5.5003    0.0000 C   0  0  0  0  0  0  0  0  0  0  0  0
   21.6134   -8.4347    0.0000 C   0  0  0  0  0  0  0  0  0  0  0  0
   23.3925   -7.2794    0.0000 C   0  0  0  0  0  0  0  0  0  0  0  0
   14.1256   -3.9816    0.0000 O   0  0  0  0  0  0  0  0  0  0  0  0
   15.1293   -2.8669    0.0000 Si  0  0  0  0  0  4  0  0  0  0  0  0
   14.0146   -1.8632    0.0000 C   0  0  0  0  0  0  0  0  0  0  0  0
   16.2440   -3.8706    0.0000 C   0  0  0  0  0  0  0  0  0  0  0  0
   16.1330   -1.7522    0.0000 C   0  0  0  0  0  0  0  0  0  0  0  0
   15.0183   -0.7485    0.0000 C   0  0  0  0  0  0  0  0  0  0  0  0
   17.2477   -2.7559    0.0000 C   0  0  0  0  0  0  0  0  0  0  0  0
   17.1367   -0.6374    0.0000 C   0  0  0  0  0  0  0  0  0  0  0  0
    9.1838   -5.5873    0.0000 O   0  0  0  0  0  0  0  0  0  0  0  0
   10.1875   -4.4726    0.0000 Si  0  0  0  0  0  4  0  0  0  0  0  0
    9.0728   -3.4689    0.0000 C   0  0  0  0  0  0  0  0  0  0  0  0
   11.3022   -5.4763    0.0000 C   0  0  0  0  0  0  0  0  0  0  0  0
   11.1912   -3.3579    0.0000 C   0  0  0  0  0  0  0  0  0  0  0  0
   10.0765   -2.3542    0.0000 C   0  0  0  0  0  0  0  0  0  0  0  0
   12.3059   -4.3616    0.0000 C   0  0  0  0  0  0  0  0  0  0  0  0
   12.1949   -2.2431    0.0000 C   0  0  0  0  0  0  0  0  0  0  0  0
    4.2420   -7.1930    0.0000 C   0  0  0  0  0  0  0  0  0  0  0  0
    2.7747   -6.8811    0.0000 C   0  0  0  0  0  0  0  0  0  0  0  0
    2.3112   -5.4545    0.0000 O   0  0  0  0  0  0  0  0  0  0  0  0
    3.3149   -4.3398    0.0000 Si  0  0  0  0  0  4  0  0  0  0  0  0
    2.2002   -3.3361    0.0000 C   0  0  0  0  0  0  0  0  0  0  0  0
    4.4296   -5.3435    0.0000 C   0  0  0  0  0  0  0  0  0  0  0  0
    4.3186   -3.2251    0.0000 C   0  0  0  0  0  0  0  0  0  0  0  0
    5.4333   -4.2288    0.0000 C   0  0  0  0  0  0  0  0  0  0  0  0
    3.2039   -2.2214    0.0000 C   0  0  0  0  0  0  0  0  0  0  0  0
    5.3223   -2.1104    0.0000 C   0  0  0  0  0  0  0  0  0  0  0  0
    1.7710   -7.9958    0.0000 C   0  0  0  0  0  0  0  0  0  0  0  0
    0.3038   -7.6840    0.0000 O   0  0  0  0  0  0  0  0  0  0  0  0
   -0.1597   -6.2574    0.0000 Si  0  0  0  0  0  4  0  0  0  0  0  0
   -1.5863   -6.7209    0.0000 C   0  0  0  0  0  0  0  0  0  0  0  0
    1.2669   -5.7939    0.0000 C   0  0  0  0  0  0  0  0  0  0  0  0
   -0.6232   -4.8308    0.0000 C   0  0  0  0  0  0  0  0  0  0  0  0
    0.8034   -4.3673    0.0000 C   0  0  0  0  0  0  0  0  0  0  0  0
   -2.0498   -5.2943    0.0000 C   0  0  0  0  0  0  0  0  0  0  0  0
   -1.0867   -3.4042    0.0000 C   0  0  0  0  0  0  0  0  0  0  0  0
    3.1210  -12.4273    0.0000 C   0  0  0  0  0  0  0  0  0  0  0  0
    3.1210  -13.9273    0.0000 C   0  0  0  0  0  0  0  0  0  0  0  0
    4.3345  -14.8089    0.0000 O   0  0  0  0  0  0  0  0  0  0  0  0
    5.7048  -14.1988    0.0000 Si  0  0  0  0  0  4  0  0  0  0  0  0
    6.4774  -15.4846    0.0000 C   0  0  0  0  0  0  0  0  0  0  0  0
    5.0947  -12.8285    0.0000 C   0  0  0  0  0  0  0  0  0  0  0  0
    7.0752  -13.5887    0.0000 C   0  0  0  0  0  0  0  0  0  0  0  0
    6.4650  -12.2184    0.0000 C   0  0  0  0  0  0  0  0  0  0  0  0
    7.6853  -14.9590    0.0000 C   0  0  0  0  0  0  0  0  0  0  0  0
    8.4455  -12.9786    0.0000 C   0  0  0  0  0  0  0  0  0  0  0  0
    0.3038  -18.6705    0.0000 O   0  0  0  0  0  0  0  0  0  0  0  0
    1.7710  -18.3587    0.0000 Si  0  0  0  0  0  4  0  0  0  0  0  0
    2.0829  -19.8259    0.0000 C   0  0  0  0  0  0  0  0  0  0  0  0
    1.7989  -17.5620    0.0000 C   0  0  0  0  0  0  0  0  0  0  0  0
    3.2383  -18.0468    0.0000 C   0  0  0  0  0  0  0  0  0  0  0  0
    3.5501  -19.5140    0.0000 C   0  0  0  0  0  0  0  0  0  0  0  0
    3.6519  -16.6049    0.0000 C   0  0  0  0  0  0  0  0  0  0  0  0
    4.7055  -17.7349    0.0000 C   0  0  0  0  0  0  0  0  0  0  0  0
   -7.0323  -20.2299    0.0000 O   0  0  0  0  0  0  0  0  0  0  0  0
   -6.5688  -18.8033    0.0000 Si  0  0  0  0  0  4  0  0  0  0  0  0
   -7.9953  -18.3398    0.0000 C   0  0  0  0  0  0  0  0  0  0  0  0
   -5.1422  -19.2668    0.0000 C   0  0  0  0  0  0  0  0  0  0  0  0
   -6.1052  -17.3767    0.0000 C   0  0  0  0  0  0  0  0  0  0  0  0
   -4.6786  -17.8402    0.0000 C   0  0  0  0  0  0  0  0  0  0  0  0
   -7.5318  -16.9132    0.0000 C   0  0  0  0  0  0  0  0  0  0  0  0
   -5.6417  -15.9501    0.0000 C   0  0  0  0  0  0  0  0  0  0  0  0
   -8.9630  -21.9683    0.0000 O   0  0  0  0  0  0  0  0  0  0  0  0
  -13.4659  -18.7810    0.0000 C   0  0  0  0  0  0  0  0  0  0  0  0
  -14.0760  -17.4106    0.0000 C   0  0  0  0  0  0  0  0  0  0  0  0
  -15.5432  -17.0988    0.0000 O   0  0  0  0  0  0  0  0  0  0  0  0
  -16.5469  -18.2135    0.0000 Si  0  0  0  0  0  4  0  0  0  0  0  0
  -17.6616  -17.2098    0.0000 C   0  0  0  0  0  0  0  0  0  0  0  0
  -15.4322  -19.2172    0.0000 C   0  0  0  0  0  0  0  0  0  0  0  0
  -17.5506  -19.3282    0.0000 C   0  0  0  0  0  0  0  0  0  0  0  0
  -16.4359  -20.3319    0.0000 C   0  0  0  0  0  0  0  0  0  0  0  0
  -18.6653  -18.3245    0.0000 C   0  0  0  0  0  0  0  0  0  0  0  0
  -18.5543  -20.4429    0.0000 C   0  0  0  0  0  0  0  0  0  0  0  0
  -12.3037   -9.4182    0.0000 C   0  0  0  0  0  0  0  0  0  0  0  0
  -11.9918   -7.9510    0.0000 C   0  0  0  0  0  0  0  0  0  0  0  0
  -12.9955   -6.8363    0.0000 O   0  0  0  0  0  0  0  0  0  0  0  0
  -14.4627   -7.1482    0.0000 Si  0  0  0  0  0  4  0  0  0  0  0  0
  -14.7746   -5.6810    0.0000 C   0  0  0  0  0  0  0  0  0  0  0  0
  -14.1508   -8.6154    0.0000 C   0  0  0  0  0  0  0  0  0  0  0  0
  -15.9299   -7.4600    0.0000 C   0  0  0  0  0  0  0  0  0  0  0  0
  -15.6181   -8.9273    0.0000 C   0  0  0  0  0  0  0  0  0  0  0  0
  -16.2418   -5.9928    0.0000 C   0  0  0  0  0  0  0  0  0  0  0  0
  -17.3971   -7.7719    0.0000 C   0  0  0  0  0  0  0  0  0  0  0  0
   -1.5000   -0.0000    0.0000 O   0  0  0  0  0  0  0  0  0  0  0  0
   -0.7500    1.2990    0.0000 C   0  0  0  0  0  0  0  0  0  0  0  0
    0.7500    1.2990    0.0000 C   0  0  0  0  0  0  0  0  0  0  0  0
    0.0000    2.5981    0.0000 C   0  0  0  0  0  0  0  0  0  0  0  0
   -0.7500    3.8971    0.0000 C   0  0  0  0  0  0  0  0  0  0  0  0
    0.0000    5.1962    0.0000 O   0  0  0  0  0  0  0  0  0  0  0  0
    1.5000    5.1962    0.0000 C   0  0  0  0  0  0  0  0  0  0  0  0
    2.2500    3.8971    0.0000 O   0  0  0  0  0  0  0  0  0  0  0  0
    2.2500    6.4952    0.0000 C   0  0  0  0  0  0  0  0  0  0  0  0
    3.7500    6.4952    0.0000 C   0  0  0  0  0  0  0  0  0  0  0  0
    4.5000    7.7942    0.0000 C   0  0  0  0  0  0  0  0  0  0  0  0
    3.7500    9.0933    0.0000 C   0  0  0  0  0  0  0  0  0  0  0  0
    2.2500    9.0933    0.0000 C   0  0  0  0  0  0  0  0  0  0  0  0
    1.5000    7.7942    0.0000 C   0  0  0  0  0  0  0  0  0  0  0  0
   -2.2500    3.8971    0.0000 C   0  0  0  0  0  0  0  0  0  0  0  0
   -3.0000    5.1962    0.0000 O   0  0  0  0  0  0  0  0  0  0  0  0
   -2.2500    6.4952    0.0000 C   0  0  0  0  0  0  0  0  0  0  0  0
   -0.7500    6.4952    0.0000 O   0  0  0  0  0  0  0  0  0  0  0  0
   -3.0000    7.7942    0.0000 C   0  0  0  0  0  0  0  0  0  0  0  0
   -2.2500    9.0933    0.0000 C   0  0  0  0  0  0  0  0  0  0  0  0
   -3.0000   10.3923    0.0000 C   0  0  0  0  0  0  0  0  0  0  0  0
   -4.5000   10.3923    0.0000 C   0  0  0  0  0  0  0  0  0  0  0  0
   -5.2500    9.0933    0.0000 C   0  0  0  0  0  0  0  0  0  0  0  0
   -4.5000    7.7942    0.0000 C   0  0  0  0  0  0  0  0  0  0  0  0
   -3.0000    2.5981    0.0000 C   0  0  0  0  0  0  0  0  0  0  0  0
   -4.5000    2.5981    0.0000 C   0  0  0  0  0  0  0  0  0  0  0  0
   -5.2500    3.8971    0.0000 C   0  0  0  0  0  0  0  0  0  0  0  0
   -6.7500    3.8971    0.0000 C   0  0  0  0  0  0  0  0  0  0  0  0
   -7.5000    5.1962    0.0000 O   0  0  0  0  0  0  0  0  0  0  0  0
   -9.0000    5.1962    0.0000 Si  0  0  0  0  0  4  0  0  0  0  0  0
   -9.0000    6.6962    0.0000 C   0  0  0  0  0  0  0  0  0  0  0  0
   -9.0000    3.6962    0.0000 C   0  0  0  0  0  0  0  0  0  0  0  0
  -10.5000    5.1962    0.0000 C   0  0  0  0  0  0  0  0  0  0  0  0
  -10.5000    3.6962    0.0000 C   0  0  0  0  0  0  0  0  0  0  0  0
  -10.5000    6.6962    0.0000 C   0  0  0  0  0  0  0  0  0  0  0  0
  -12.0000    5.1962    0.0000 C   0  0  0  0  0  0  0  0  0  0  0  0
   -4.5000    5.1962    0.0000 O   0  0  0  0  0  0  0  0  0  0  0  0
   -5.2500    6.4952    0.0000 Si  0  0  0  0  0  4  0  0  0  0  0  0
   -3.9510    7.2452    0.0000 C   0  0  0  0  0  0  0  0  0  0  0  0
   -6.5490    5.7452    0.0000 C   0  0  0  0  0  0  0  0  0  0  0  0
   -6.0000    7.7942    0.0000 C   0  0  0  0  0  0  0  0  0  0  0  0
   -7.2990    7.0442    0.0000 C   0  0  0  0  0  0  0  0  0  0  0  0
   -4.7010    8.5442    0.0000 C   0  0  0  0  0  0  0  0  0  0  0  0
   -6.7500    9.0933    0.0000 C   0  0  0  0  0  0  0  0  0  0  0  0
   -2.2500    1.2990    0.0000 O   0  0  0  0  0  0  0  0  0  0  0  0
  1  2  2  0
  2  3  1  0
  3  4  1  0
  4  5  1  1
  5  6  1  0
  6  7  1  6
  6  8  1  0
  8  9  1  0
  9 10  2  0
 10 11  1  0
 11 12  2  0
 11 13  1  0
 13 14  1  0
 15 14  1  1
 15 16  1  0
 16 17  1  0
 17 18  1  1
 18 19  1  0
 19 20  1  0
 20 21  1  0
 22 21  1  1
 22 23  1  0
 23 24  1  0
 24 25  1  1
 25 26  1  0
 26 27  1  1
 26 28  1  0
 28 29  1  1
 29 30  1  0
 30 31  1  6
 31 32  1  0
 32 33  1  0
 32 34  1  0
 32 35  1  0
 35 36  1  0
 35 37  1  0
 35 38  1  0
 30 39  1  0
 39 40  1  1
 40 41  1  0
 41 42  1  0
 41 43  1  0
 41 44  1  0
 44 45  1  0
 44 46  1  0
 44 47  1  0
 39 48  1  0
 48 49  1  0
 49 50  1  6
 50 51  1  0
 51 52  1  0
 51 53  1  0
 51 54  1  0
 54 55  1  0
 54 56  1  0
 54 57  1  0
 49 58  1  0
 58 59  1  1
 59 60  1  0
 60 61  1  0
 61 62  1  0
 61 63  2  0
 63 64  1  0
 64 65  1  1
 66 65  1  6
 66 67  1  0
 67 68  1  0
 68 69  1  0
 68 70  1  0
 68 71  1  0
 71 72  1  0
 71 73  1  0
 71 74  1  0
 66 75  1  0
 75 76  1  1
 76 77  1  0
 77 78  1  1
 79 78  1  6
 79 80  1  0
 80 81  1  0
 81 82  1  6
 82 83  1  0
 83 84  1  0
 83 85  2  0
 85 86  1  0
 86 87  1  6
 87 88  1  0
 88 89  2  0
 89 90  1  0
 90 91  1  1
 92 91  1  6
 92 93  1  0
 93 94  1  0
 94 95  1  0
 95 96  1  0
 96 97  1  1
 97 98  1  0
 98 99  1  0
 98100  1  0
 98101  1  0
101102  1  0
101103  1  0
101104  1  0
 96105  1  0
105106  1  1
106107  1  0
107108  1  0
107109  1  0
107110  1  0
110111  1  0
110112  1  0
110113  1  0
 90114  1  0
114115  1  0
115116  1  0
115117  1  0
115118  1  0
118119  1  0
118120  1  0
118121  1  0
 86122  1  0
122123  1  0
123124  1  0
123125  1  0
123126  1  0
126127  1  0
126128  1  0
126129  1  0
 81130  1  0
130131  1  0
131132  1  1
132133  1  0
133134  1  0
133135  1  0
133136  1  0
136137  1  0
136138  1  0
136139  1  0
131140  1  0
140141  1  1
141142  1  0
142143  1  0
142144  1  0
142145  1  0
145146  1  0
145147  1  0
145148  1  0
 77149  1  0
149150  1  0
150151  1  1
151152  1  0
152153  1  0
152154  1  0
152155  1  0
155156  1  0
155157  1  0
155158  1  0
 64159  1  0
159160  1  0
160161  1  0
160162  1  0
160163  1  0
163164  1  0
163165  1  0
163166  1  0
 58167  1  0
167168  1  0
168169  1  0
168170  1  0
168171  1  0
171172  1  0
171173  1  0
171174  1  0
 48175  1  6
 24176  1  0
176177  1  0
177178  1  1
178179  1  0
179180  1  0
179181  1  0
179182  1  0
182183  1  0
182184  1  0
182185  1  0
 17186  1  0
186187  1  0
187188  1  1
188189  1  0
189190  1  0
189191  1  0
189192  1  0
192193  1  0
192194  1  0
192195  1  0
  4196  1  0
196197  1  0
197198  1  6
197199  1  0
199200  1  0
200201  1  6
201202  1  0
202203  2  0
202204  1  0
204205  2  0
205206  1  0
206207  2  0
207208  1  0
208209  2  0
200210  1  0
210211  1  1
211212  1  0
212213  2  0
212214  1  0
214215  2  0
215216  1  0
216217  2  0
217218  1  0
218219  2  0
210220  1  0
220221  1  6
222221  1  1
222223  1  0
223224  1  0
224225  1  0
225226  1  0
225227  1  0
225228  1  0
228229  1  0
228230  1  0
228231  1  0
222232  1  0
232233  1  0
233234  1  0
233235  1  0
233236  1  0
236237  1  0
236238  1  0
236239  1  0
220240  1  0
198  2  1  0
209204  1  0
219214  1  0
187 15  1  0
240197  1  0
177 22  1  0
175 28  1  0
150 75  1  0
140 79  1  0
105 92  1  0
M  END
$$$$
40-epi-43
     RDKit          2D

240249  0  0  0  0  0  0  0  0999 V2000
    3.0000    0.0000    0.0000 C   0  0  0  0  0  0  0  0  0  0  0  0
    1.5000   -0.0000    0.0000 C   0  0  0  0  0  0  0  0  0  0  0  0
    0.7500   -1.2990    0.0000 C   0  0  0  0  0  0  0  0  0  0  0  0
   -0.7500   -1.2990    0.0000 C   0  0  0  0  0  0  0  0  0  0  0  0
   -1.5000   -2.5981    0.0000 C   0  0  0  0  0  0  0  0  0  0  0  0
   -3.0000   -2.5981    0.0000 C   0  0  0  0  0  0  0  0  0  0  0  0
   -3.7500   -1.2990    0.0000 O   0  0  0  0  0  0  0  0  0  0  0  0
   -3.7500   -3.8971    0.0000 C   0  0  0  0  0  0  0  0  0  0  0  0
   -5.2500   -3.8971    0.0000 C   0  0  0  0  0  0  0  0  0  0  0  0
   -6.0000   -5.1962    0.0000 C   0  0  0  0  0  0  0  0  0  0  0  0
   -7.5000   -5.1962    0.0000 C   0  0  0  0  0  0  0  0  0  0  0  0
   -8.2500   -3.8971    0.0000 O   0  0  0  0  0  0  0  0  0  0  0  0
   -8.2500   -6.4952    0.0000 C   0  0  0  0  0  0  0  0  0  0  0  0
   -9.7500   -6.4952    0.0000 C   0  0  0  0  0  0  0  0  0  0  0  0
  -10.5000   -7.7942    0.0000 C   0  0  0  0  0  0  0  0  0  0  0  0
   -9.8899   -9.1645    0.0000 O   0  0  0  0  0  0  0  0  0  0  0  0
  -11.0046  -10.1682    0.0000 C   0  0  0  0  0  0  0  0  0  0  0  0
  -10.8478  -11.6600    0.0000 C   0  0  0  0  0  0  0  0  0  0  0  0
  -12.0613  -12.5417    0.0000 C   0  0  0  0  0  0  0  0  0  0  0  0
  -11.9046  -14.0335    0.0000 C   0  0  0  0  0  0  0  0  0  0  0  0
  -13.1181  -14.9152    0.0000 C   0  0  0  0  0  0  0  0  0  0  0  0
  -12.9613  -16.4069    0.0000 C   0  0  0  0  0  0  0  0  0  0  0  0
  -11.6622  -17.1569    0.0000 O   0  0  0  0  0  0  0  0  0  0  0  0
  -11.9741  -18.6242    0.0000 C   0  0  0  0  0  0  0  0  0  0  0  0
  -10.9704  -19.7389    0.0000 C   0  0  0  0  0  0  0  0  0  0  0  0
  -11.4339  -21.1655    0.0000 C   0  0  0  0  0  0  0  0  0  0  0  0
  -12.9012  -21.4773    0.0000 O   0  0  0  0  0  0  0  0  0  0  0  0
  -10.4302  -22.2802    0.0000 C   0  0  0  0  0  0  0  0  0  0  0  0
  -10.8938  -23.7068    0.0000 C   0  0  0  0  0  0  0  0  0  0  0  0
   -9.8901  -24.8215    0.0000 C   0  0  0  0  0  0  0  0  0  0  0  0
  -10.3536  -26.2481    0.0000 O   0  0  0  0  0  0  0  0  0  0  0  0
  -11.8208  -26.5599    0.0000 Si  0  0  0  0  0  4  0  0  0  0  0  0
  -11.5090  -28.0272    0.0000 C   0  0  0  0  0  0  0  0  0  0  0  0
  -12.1327  -25.0927    0.0000 C   0  0  0  0  0  0  0  0  0  0  0  0
  -13.2880  -26.8718    0.0000 C   0  0  0  0  0  0  0  0  0  0  0  0
  -13.5999  -25.4046    0.0000 C   0  0  0  0  0  0  0  0  0  0  0  0
  -12.9762  -28.3390    0.0000 C   0  0  0  0  0  0  0  0  0  0  0  0
  -14.7553  -27.1837    0.0000 C   0  0  0  0  0  0  0  0  0  0  0  0
   -8.4229  -24.5096    0.0000 C   0  0  0  0  0  0  0  0  0  0  0  0
   -7.4192  -25.6243    0.0000 O   0  0  0  0  0  0  0  0  0  0  0  0
   -7.8827  -27.0509    0.0000 Si  0  0  0  0  0  4  0  0  0  0  0  0
   -6.4561  -27.5144    0.0000 C   0  0  0  0  0  0  0  0  0  0  0  0
   -9.3093  -26.5874    0.0000 C   0  0  0  0  0  0  0  0  0  0  0  0
   -8.3462  -28.4775    0.0000 C   0  0  0  0  0  0  0  0  0  0  0  0
   -6.9196  -28.9410    0.0000 C   0  0  0  0  0  0  0  0  0  0  0  0
   -9.7728  -28.0140    0.0000 C   0  0  0  0  0  0  0  0  0  0  0  0
   -8.8097  -29.9041    0.0000 C   0  0  0  0  0  0  0  0  0  0  0  0
   -7.9593  -23.0830    0.0000 C   0  0  0  0  0  0  0  0  0  0  0  0
   -6.4921  -22.7712    0.0000 C   0  0  0  0  0  0  0  0  0  0  0  0
   -5.4884  -23.8859    0.0000 O   0  0  0  0  0  0  0  0  0  0  0  0
   -4.0212  -23.5740    0.0000 Si  0  0  0  0  0  4  0  0  0  0  0  0
   -3.7093  -25.0412    0.0000 C   0  0  0  0  0  0  0  0  0  0  0  0
   -4.3331  -22.1068    0.0000 C   0  0  0  0  0  0  0  0  0  0  0  0
   -2.5540  -23.2622    0.0000 C   0  0  0  0  0  0  0  0  0  0  0  0
   -2.8658  -21.7949    0.0000 C   0  0  0  0  0  0  0  0  0  0  0  0
   -2.2421  -24.7294    0.0000 C   0  0  0  0  0  0  0  0  0  0  0  0
   -1.0867  -22.9503    0.0000 C   0  0  0  0  0  0  0  0  0  0  0  0
   -6.0286  -21.3446    0.0000 C   0  0  0  0  0  0  0  0  0  0  0  0
   -4.5614  -21.0327    0.0000 C   0  0  0  0  0  0  0  0  0  0  0  0
   -4.0978  -19.6061    0.0000 C   0  0  0  0  0  0  0  0  0  0  0  0
   -2.6306  -19.2943    0.0000 C   0  0  0  0  0  0  0  0  0  0  0  0
   -1.6269  -20.4090    0.0000 C   0  0  0  0  0  0  0  0  0  0  0  0
   -2.1671  -17.8677    0.0000 C   0  0  0  0  0  0  0  0  0  0  0  0
   -0.6999  -17.5558    0.0000 C   0  0  0  0  0  0  0  0  0  0  0  0
   -0.2363  -16.1292    0.0000 C   0  0  0  0  0  0  0  0  0  0  0  0
    1.2309  -15.8174    0.0000 C   0  0  0  0  0  0  0  0  0  0  0  0
    2.2346  -16.9321    0.0000 O   0  0  0  0  0  0  0  0  0  0  0  0
    3.7018  -16.6202    0.0000 Si  0  0  0  0  0  4  0  0  0  0  0  0
    4.0137  -18.0874    0.0000 C   0  0  0  0  0  0  0  0  0  0  0  0
    3.3899  -15.1530    0.0000 C   0  0  0  0  0  0  0  0  0  0  0  0
    5.1690  -16.3083    0.0000 C   0  0  0  0  0  0  0  0  0  0  0  0
    5.2162  -14.9592    0.0000 C   0  0  0  0  0  0  0  0  0  0  0  0
    5.4809  -17.7756    0.0000 C   0  0  0  0  0  0  0  0  0  0  0  0
    6.6633  -16.1776    0.0000 C   0  0  0  0  0  0  0  0  0  0  0  0
    1.6944  -14.3908    0.0000 C   0  0  0  0  0  0  0  0  0  0  0  0
    0.8127  -13.1773    0.0000 O   0  0  0  0  0  0  0  0  0  0  0  0
    1.6944  -11.9637    0.0000 C   0  0  0  0  0  0  0  0  0  0  0  0
    1.2309  -10.5371    0.0000 C   0  0  0  0  0  0  0  0  0  0  0  0
    2.2346   -9.4224    0.0000 C   0  0  0  0  0  0  0  0  0  0  0  0
    3.7018   -9.7343    0.0000 O   0  0  0  0  0  0  0  0  0  0  0  0
    4.7055   -8.6196    0.0000 C   0  0  0  0  0  0  0  0  0  0  0  0
    6.1727   -8.9314    0.0000 C   0  0  0  0  0  0  0  0  0  0  0  0
    7.1764   -7.8167    0.0000 C   0  0  0  0  0  0  0  0  0  0  0  0
    6.7129   -6.3901    0.0000 C   0  0  0  0  0  0  0  0  0  0  0  0
    8.6436   -8.1286    0.0000 C   0  0  0  0  0  0  0  0  0  0  0  0
    9.6473   -7.0139    0.0000 C   0  0  0  0  0  0  0  0  0  0  0  0
   11.1145   -7.3257    0.0000 C   0  0  0  0  0  0  0  0  0  0  0  0
   12.1182   -6.2110    0.0000 C   0  0  0  0  0  0  0  0  0  0  0  0
   13.5855   -6.5229    0.0000 C   0  0  0  0  0  0  0  0  0  0  0  0
   14.5892   -5.4082    0.0000 C   0  0  0  0  0  0  0  0  0  0  0  0
   16.0564   -5.7200    0.0000 C   0  0  0  0  0  0  0  0  0  0  0  0
   16.5199   -7.1466    0.0000 C   0  0  0  0  0  0  0  0  0  0  0  0
   15.5162   -8.2613    0.0000 O   0  0  0  0  0  0  0  0  0  0  0  0
   15.9797   -9.6879    0.0000 C   0  0  0  0  0  0  0  0  0  0  0  0
   17.4470   -9.9998    0.0000 C   0  0  0  0  0  0  0  0  0  0  0  0
   18.4507   -8.8851    0.0000 C   0  0  0  0  0  0  0  0  0  0  0  0
   19.9179   -9.1969    0.0000 O   0  0  0  0  0  0  0  0  0  0  0  0
   20.3814  -10.6235    0.0000 Si  0  0  0  0  0  4  0  0  0  0  0  0
   21.8080  -10.1600    0.0000 C   0  0  0  0  0  0  0  0  0  0  0  0
   18.9548  -11.0871    0.0000 C   0  0  0  0  0  0  0  0  0  0  0  0
   20.8449  -12.0501    0.0000 C   0  0  0  0  0  0  0  0  0  0  0  0
   19.4183  -12.5136    0.0000 C   0  0  0  0  0  0  0  0  0  0  0  0
   22.2715  -11.5866    0.0000 C   0  0  0  0  0  0  0  0  0  0  0  0
   21.3085  -13.4767    0.0000 C   0  0  0  0  0  0  0  0  0  0  0  0
   17.9871   -7.4585    0.0000 C   0  0  0  0  0  0  0  0  0  0  0  0
   18.9908   -6.3438    0.0000 O   0  0  0  0  0  0  0  0  0  0  0  0
   20.4580   -6.6556    0.0000 Si  0  0  0  0  0  4  0  0  0  0  0  0
   20.7699   -5.1884    0.0000 C   0  0  0  0  0  0  0  0  0  0  0  0
   20.1462   -8.1229    0.0000 C   0  0  0  0  0  0  0  0  0  0  0  0
   21.9253   -6.9675    0.0000 C   0  0  0  0  0  0  0  0  0  0  0  0
   22.2371   -5.5003    0.0000 C   0  0  0  0  0  0  0  0  0  0  0  0
   21.6134   -8.4347    0.0000 C   0  0  0  0  0  0  0  0  0  0  0  0
   23.3925   -7.2794    0.0000 C   0  0  0  0  0  0  0  0  0  0  0  0
   14.1256   -3.9816    0.0000 O   0  0  0  0  0  0  0  0  0  0  0  0
   15.1293   -2.8669    0.0000 Si  0  0  0  0  0  4  0  0  0  0  0  0
   14.0146   -1.8632    0.0000 C   0  0  0  0  0  0  0  0  0  0  0  0
   16.2440   -3.8706    0.0000 C   0  0  0  0  0  0  0  0  0  0  0  0
   16.1330   -1.7522    0.0000 C   0  0  0  0  0  0  0  0  0  0  0  0
   15.0183   -0.7485    0.0000 C   0  0  0  0  0  0  0  0  0  0  0  0
   17.2477   -2.7559    0.0000 C   0  0  0  0  0  0  0  0  0  0  0  0
   17.1367   -0.6374    0.0000 C   0  0  0  0  0  0  0  0  0  0  0  0
    9.1838   -5.5873    0.0000 O   0  0  0  0  0  0  0  0  0  0  0  0
   10.1875   -4.4726    0.0000 Si  0  0  0  0  0  4  0  0  0  0  0  0
    9.0728   -3.4689    0.0000 C   0  0  0  0  0  0  0  0  0  0  0  0
   11.3022   -5.4763    0.0000 C   0  0  0  0  0  0  0  0  0  0  0  0
   11.1912   -3.3579    0.0000 C   0  0  0  0  0  0  0  0  0  0  0  0
   10.0765   -2.3542    0.0000 C   0  0  0  0  0  0  0  0  0  0  0  0
   12.3059   -4.3616    0.0000 C   0  0  0  0  0  0  0  0  0  0  0  0
   12.1949   -2.2431    0.0000 C   0  0  0  0  0  0  0  0  0  0  0  0
    4.2420   -7.1930    0.0000 C   0  0  0  0  0  0  0  0  0  0  0  0
    2.7747   -6.8811    0.0000 C   0  0  0  0  0  0  0  0  0  0  0  0
    2.3112   -5.4545    0.0000 O   0  0  0  0  0  0  0  0  0  0  0  0
    3.3149   -4.3398    0.0000 Si  0  0  0  0  0  4  0  0  0  0  0  0
    2.2002   -3.3361    0.0000 C   0  0  0  0  0  0  0  0  0  0  0  0
    4.4296   -5.3435    0.0000 C   0  0  0  0  0  0  0  0  0  0  0  0
    4.3186   -3.2251    0.0000 C   0  0  0  0  0  0  0  0  0  0  0  0
    5.4333   -4.2288    0.0000 C   0  0  0  0  0  0  0  0  0  0  0  0
    3.2039   -2.2214    0.0000 C   0  0  0  0  0  0  0  0  0  0  0  0
    5.3223   -2.1104    0.0000 C   0  0  0  0  0  0  0  0  0  0  0  0
    1.7710   -7.9958    0.0000 C   0  0  0  0  0  0  0  0  0  0  0  0
    0.3038   -7.6840    0.0000 O   0  0  0  0  0  0  0  0  0  0  0  0
   -0.1597   -6.2574    0.0000 Si  0  0  0  0  0  4  0  0  0  0  0  0
   -1.5863   -6.7209    0.0000 C   0  0  0  0  0  0  0  0  0  0  0  0
    1.2669   -5.7939    0.0000 C   0  0  0  0  0  0  0  0  0  0  0  0
   -0.6232   -4.8308    0.0000 C   0  0  0  0  0  0  0  0  0  0  0  0
    0.8034   -4.3673    0.0000 C   0  0  0  0  0  0  0  0  0  0  0  0
   -2.0498   -5.2943    0.0000 C   0  0  0  0  0  0  0  0  0  0  0  0
   -1.0867   -3.4042    0.0000 C   0  0  0  0  0  0  0  0  0  0  0  0
    3.1210  -12.4273    0.0000 C   0  0  0  0  0  0  0  0  0  0  0  0
    3.1210  -13.9273    0.0000 C   0  0  0  0  0  0  0  0  0  0  0  0
    4.3345  -14.8089    0.0000 O   0  0  0  0  0  0  0  0  0  0  0  0
    5.7048  -14.1988    0.0000 Si  0  0  0  0  0  4  0  0  0  0  0  0
    6.4774  -15.4846    0.0000 C   0  0  0  0  0  0  0  0  0  0  0  0
    5.0947  -12.8285    0.0000 C   0  0  0  0  0  0  0  0  0  0  0  0
    7.0752  -13.5887    0.0000 C   0  0  0  0  0  0  0  0  0  0  0  0
    6.4650  -12.2184    0.0000 C   0  0  0  0  0  0  0  0  0  0  0  0
    7.6853  -14.9590    0.0000 C   0  0  0  0  0  0  0  0  0  0  0  0
    8.4455  -12.9786    0.0000 C   0  0  0  0  0  0  0  0  0  0  0  0
    0.3038  -18.6705    0.0000 O   0  0  0  0  0  0  0  0  0  0  0  0
    1.7710  -18.3587    0.0000 Si  0  0  0  0  0  4  0  0  0  0  0  0
    2.0829  -19.8259    0.0000 C   0  0  0  0  0  0  0  0  0  0  0  0
    1.7989  -17.5620    0.0000 C   0  0  0  0  0  0  0  0  0  0  0  0
    3.2383  -18.0468    0.0000 C   0  0  0  0  0  0  0  0  0  0  0  0
    3.5501  -19.5140    0.0000 C   0  0  0  0  0  0  0  0  0  0  0  0
    3.6519  -16.6049    0.0000 C   0  0  0  0  0  0  0  0  0  0  0  0
    4.7055  -17.7349    0.0000 C   0  0  0  0  0  0  0  0  0  0  0  0
   -7.0323  -20.2299    0.0000 O   0  0  0  0  0  0  0  0  0  0  0  0
   -6.5688  -18.8033    0.0000 Si  0  0  0  0  0  4  0  0  0  0  0  0
   -7.9953  -18.3398    0.0000 C   0  0  0  0  0  0  0  0  0  0  0  0
   -5.1422  -19.2668    0.0000 C   0  0  0  0  0  0  0  0  0  0  0  0
   -6.1052  -17.3767    0.0000 C   0  0  0  0  0  0  0  0  0  0  0  0
   -4.6786  -17.8402    0.0000 C   0  0  0  0  0  0  0  0  0  0  0  0
   -7.5318  -16.9132    0.0000 C   0  0  0  0  0  0  0  0  0  0  0  0
   -5.6417  -15.9501    0.0000 C   0  0  0  0  0  0  0  0  0  0  0  0
   -8.9630  -21.9683    0.0000 O   0  0  0  0  0  0  0  0  0  0  0  0
  -13.4659  -18.7810    0.0000 C   0  0  0  0  0  0  0  0  0  0  0  0
  -14.0760  -17.4106    0.0000 C   0  0  0  0  0  0  0  0  0  0  0  0
  -15.5432  -17.0988    0.0000 O   0  0  0  0  0  0  0  0  0  0  0  0
  -16.5469  -18.2135    0.0000 Si  0  0  0  0  0  4  0  0  0  0  0  0
  -17.6616  -17.2098    0.0000 C   0  0  0  0  0  0  0  0  0  0  0  0
  -15.4322  -19.2172    0.0000 C   0  0  0  0  0  0  0  0  0  0  0  0
  -17.5506  -19.3282    0.0000 C   0  0  0  0  0  0  0  0  0  0  0  0
  -16.4359  -20.3319    0.0000 C   0  0  0  0  0  0  0  0  0  0  0  0
  -18.6653  -18.3245    0.0000 C   0  0  0  0  0  0  0  0  0  0  0  0
  -18.5543  -20.4429    0.0000 C   0  0  0  0  0  0  0  0  0  0  0  0
  -12.3037   -9.4182    0.0000 C   0  0  0  0  0  0  0  0  0  0  0  0
  -11.9918   -7.9510    0.0000 C   0  0  0  0  0  0  0  0  0  0  0  0
  -12.9955   -6.8363    0.0000 O   0  0  0  0  0  0  0  0  0  0  0  0
  -14.4627   -7.1482    0.0000 Si  0  0  0  0  0  4  0  0  0  0  0  0
  -14.7746   -5.6810    0.0000 C   0  0  0  0  0  0  0  0  0  0  0  0
  -14.1508   -8.6154    0.0000 C   0  0  0  0  0  0  0  0  0  0  0  0
  -15.9299   -7.4600    0.0000 C   0  0  0  0  0  0  0  0  0  0  0  0
  -15.6181   -8.9273    0.0000 C   0  0  0  0  0  0  0  0  0  0  0  0
  -16.2418   -5.9928    0.0000 C   0  0  0  0  0  0  0  0  0  0  0  0
  -17.3971   -7.7719    0.0000 C   0  0  0  0  0  0  0  0  0  0  0  0
   -1.5000   -0.0000    0.0000 O   0  0  0  0  0  0  0  0  0  0  0  0
   -0.7500    1.2990    0.0000 C   0  0  0  0  0  0  0  0  0  0  0  0
    0.7500    1.2990    0.0000 C   0  0  0  0  0  0  0  0  0  0  0  0
    0.0000    2.5981    0.0000 C   0  0  0  0  0  0  0  0  0  0  0  0
   -0.7500    3.8971    0.0000 C   0  0  0  0  0  0  0  0  0  0  0  0
    0.0000    5.1962    0.0000 O   0  0  0  0  0  0  0  0  0  0  0  0
    1.5000    5.1962    0.0000 C   0  0  0  0  0  0  0  0  0  0  0  0
    2.2500    3.8971    0.0000 O   0  0  0  0  0  0  0  0  0  0  0  0
    2.2500    6.4952    0.0000 C   0  0  0  0  0  0  0  0  0  0  0  0
    3.7500    6.4952    0.0000 C   0  0  0  0  0  0  0  0  0  0  0  0
    4.5000    7.7942    0.0000 C   0  0  0  0  0  0  0  0  0  0  0  0
    3.7500    9.0933    0.0000 C   0  0  0  0  0  0  0  0  0  0  0  0
    2.2500    9.0933    0.0000 C   0  0  0  0  0  0  0  0  0  0  0  0
    1.5000    7.7942    0.0000 C   0  0  0  0  0  0  0  0  0  0  0  0
   -2.2500    3.8971    0.0000 C   0  0  0  0  0  0  0  0  0  0  0  0
   -3.0000    5.1962    0.0000 O   0  0  0  0  0  0  0  0  0  0  0  0
   -2.2500    6.4952    0.0000 C   0  0  0  0  0  0  0  0  0  0  0  0
   -0.7500    6.4952    0.0000 O   0  0  0  0  0  0  0  0  0  0  0  0
   -3.0000    7.7942    0.0000 C   0  0  0  0  0  0  0  0  0  0  0  0
   -2.2500    9.0933    0.0000 C   0  0  0  0  0  0  0  0  0  0  0  0
   -3.0000   10.3923    0.0000 C   0  0  0  0  0  0  0  0  0  0  0  0
   -4.5000   10.3923    0.0000 C   0  0  0  0  0  0  0  0  0  0  0  0
   -5.2500    9.0933    0.0000 C   0  0  0  0  0  0  0  0  0  0  0  0
   -4.5000    7.7942    0.0000 C   0  0  0  0  0  0  0  0  0  0  0  0
   -3.0000    2.5981    0.0000 C   0  0  0  0  0  0  0  0  0  0  0  0
   -4.5000    2.5981    0.0000 C   0  0  0  0  0  0  0  0  0  0  0  0
   -5.2500    3.8971    0.0000 C   0  0  0  0  0  0  0  0  0  0  0  0
   -6.7500    3.8971    0.0000 C   0  0  0  0  0  0  0  0  0  0  0  0
   -7.5000    5.1962    0.0000 O   0  0  0  0  0  0  0  0  0  0  0  0
   -9.0000    5.1962    0.0000 Si  0  0  0  0  0  4  0  0  0  0  0  0
   -9.0000    6.6962    0.0000 C   0  0  0  0  0  0  0  0  0  0  0  0
   -9.0000    3.6962    0.0000 C   0  0  0  0  0  0  0  0  0  0  0  0
  -10.5000    5.1962    0.0000 C   0  0  0  0  0  0  0  0  0  0  0  0
  -10.5000    3.6962    0.0000 C   0  0  0  0  0  0  0  0  0  0  0  0
  -10.5000    6.6962    0.0000 C   0  0  0  0  0  0  0  0  0  0  0  0
  -12.0000    5.1962    0.0000 C   0  0  0  0  0  0  0  0  0  0  0  0
   -4.5000    5.1962    0.0000 O   0  0  0  0  0  0  0  0  0  0  0  0
   -5.2500    6.4952    0.0000 Si  0  0  0  0  0  4  0  0  0  0  0  0
   -3.9510    7.2452    0.0000 C   0  0  0  0  0  0  0  0  0  0  0  0
   -6.5490    5.7452    0.0000 C   0  0  0  0  0  0  0  0  0  0  0  0
   -6.0000    7.7942    0.0000 C   0  0  0  0  0  0  0  0  0  0  0  0
   -7.2990    7.0442    0.0000 C   0  0  0  0  0  0  0  0  0  0  0  0
   -4.7010    8.5442    0.0000 C   0  0  0  0  0  0  0  0  0  0  0  0
   -6.7500    9.0933    0.0000 C   0  0  0  0  0  0  0  0  0  0  0  0
   -2.2500    1.2990    0.0000 O   0  0  0  0  0  0  0  0  0  0  0  0
  1  2  2  0
  2  3  1  0
  3  4  1  0
  4  5  1  1
  5  6  1  0
  6  7  1  6
  6  8  1  0
  8  9  1  0
  9 10  2  0
 10 11  1  0
 11 12  1  6
 11 13  1  0
 13 14  1  0
 15 14  1  1
 15 16  1  0
 16 17  1  0
 17 18  1  1
 18 19  1  0
 19 20  1  0
 20 21  1  0
 22 21  1  1
 22 23  1  0
 23 24  1  0
 24 25  1  1
 25 26  1  0
 26 27  1  1
 26 28  1  0
 28 29  1  1
 29 30  1  0
 30 31  1  6
 31 32  1  0
 32 33  1  0
 32 34  1  0
 32 35  1  0
 35 36  1  0
 35 37  1  0
 35 38  1  0
 30 39  1  0
 39 40  1  1
 40 41  1  0
 41 42  1  0
 41 43  1  0
 41 44  1  0
 44 45  1  0
 44 46  1  0
 44 47  1  0
 39 48  1  0
 48 49  1  0
 49 50  1  6
 50 51  1  0
 51 52  1  0
 51 53  1  0
 51 54  1  0
 54 55  1  0
 54 56  1  0
 54 57  1  0
 49 58  1  0
 58 59  1  1
 59 60  1  0
 60 61  1  0
 61 62  1  0
 61 63  2  0
 63 64  1  0
 64 65  1  1
 66 65  1  6
 66 67  1  0
 67 68  1  0
 68 69  1  0
 68 70  1  0
 68 71  1  0
 71 72  1  0
 71 73  1  0
 71 74  1  0
 66 75  1  0
 75 76  1  1
 76 77  1  0
 77 78  1  1
 79 78  1  6
 79 80  1  0
 80 81  1  0
 81 82  1  6
 82 83  1  0
 83 84  1  0
 83 85  2  0
 85 86  1  0
 86 87  1  6
 87 88  1  0
 88 89  2  0
 89 90  1  0
 90 91  1  1
 92 91  1  6
 92 93  1  0
 93 94  1  0
 94 95  1  0
 95 96  1  0
 96 97  1  1
 97 98  1  0
 98 99  1  0
 98100  1  0
 98101  1  0
101102  1  0
101103  1  0
101104  1  0
 96105  1  0
105106  1  1
106107  1  0
107108  1  0
107109  1  0
107110  1  0
110111  1  0
110112  1  0
110113  1  0
 90114  1  0
114115  1  0
115116  1  0
115117  1  0
115118  1  0
118119  1  0
118120  1  0
118121  1  0
 86122  1  0
122123  1  0
123124  1  0
123125  1  0
123126  1  0
126127  1  0
126128  1  0
126129  1  0
 81130  1  0
130131  1  0
131132  1  1
132133  1  0
133134  1  0
133135  1  0
133136  1  0
136137  1  0
136138  1  0
136139  1  0
131140  1  0
140141  1  1
141142  1  0
142143  1  0
142144  1  0
142145  1  0
145146  1  0
145147  1  0
145148  1  0
 77149  1  0
149150  1  0
150151  1  1
151152  1  0
152153  1  0
152154  1  0
152155  1  0
155156  1  0
155157  1  0
155158  1  0
 64159  1  0
159160  1  0
160161  1  0
160162  1  0
160163  1  0
163164  1  0
163165  1  0
163166  1  0
 58167  1  0
167168  1  0
168169  1  0
168170  1  0
168171  1  0
171172  1  0
171173  1  0
171174  1  0
 48175  1  6
 24176  1  0
176177  1  0
177178  1  1
178179  1  0
179180  1  0
179181  1  0
179182  1  0
182183  1  0
182184  1  0
182185  1  0
 17186  1  0
186187  1  0
187188  1  1
188189  1  0
189190  1  0
189191  1  0
189192  1  0
192193  1  0
192194  1  0
192195  1  0
  4196  1  0
196197  1  0
197198  1  6
197199  1  0
199200  1  0
200201  1  6
201202  1  0
202203  2  0
202204  1  0
204205  2  0
205206  1  0
206207  2  0
207208  1  0
208209  2  0
200210  1  0
210211  1  1
211212  1  0
212213  2  0
212214  1  0
214215  2  0
215216  1  0
216217  2  0
217218  1  0
218219  2  0
210220  1  0
220221  1  6
222221  1  1
222223  1  0
223224  1  0
224225  1  0
225226  1  0
225227  1  0
225228  1  0
228229  1  0
228230  1  0
228231  1  0
222232  1  0
232233  1  0
233234  1  0
233235  1  0
233236  1  0
236237  1  0
236238  1  0
236239  1  0
220240  1  0
198  2  1  0
209204  1  0
219214  1  0
187 15  1  0
240197  1  0
177 22  1  0
175 28  1  0
150 75  1  0
140 79  1  0
105 92  1  0
M  END
$$$$
40-epi-43-debenzoylated
     RDKit          2D

224231  0  0  0  0  0  0  0  0999 V2000
    3.0000    0.0000    0.0000 C   0  0  0  0  0  0  0  0  0  0  0  0
    1.5000   -0.0000    0.0000 C   0  0  0  0  0  0  0  0  0  0  0  0
    0.7500   -1.2990    0.0000 C   0  0  0  0  0  0  0  0  0  0  0  0
   -0.7500   -1.2990    0.0000 C   0  0  0  0  0  0  0  0  0  0  0  0
   -1.5000   -2.5981    0.0000 C   0  0  0  0  0  0  0  0  0  0  0  0
   -3.0000   -2.5981    0.0000 C   0  0  0  0  0  0  0  0  0  0  0  0
   -3.5861   -1.2173    0.0000 O   0  0  0  0  0  0  0  0  0  0  0  0
   -3.7500   -3.8971    0.0000 C   0  0  0  0  0  0  0  0  0  0  0  0
   -5.2500   -3.8971    0.0000 C   0  0  0  0  0  0  0  0  0  0  0  0
   -6.0000   -5.1962    0.0000 C   0  0  0  0  0  0  0  0  0  0  0  0
   -7.5000   -5.1962    0.0000 C   0  0  0  0  0  0  0  0  0  0  0  0
   -8.2500   -3.8971    0.0000 O   0  0  0  0  0  0  0  0  0  0  0  0
   -8.2500   -6.4952    0.0000 C   0  0  0  0  0  0  0  0  0  0  0  0
   -9.7500   -6.4952    0.0000 C   0  0  0  0  0  0  0  0  0  0  0  0
  -10.5000   -7.7942    0.0000 C   0  0  0  0  0  0  0  0  0  0  0  0
   -9.8899   -9.1645    0.0000 O   0  0  0  0  0  0  0  0  0  0  0  0
  -11.0046  -10.1682    0.0000 C   0  0  0  0  0  0  0  0  0  0  0  0
  -10.8478  -11.6600    0.0000 C   0  0  0  0  0  0  0  0  0  0  0  0
  -12.0613  -12.5417    0.0000 C   0  0  0  0  0  0  0  0  0  0  0  0
  -11.9046  -14.0335    0.0000 C   0  0  0  0  0  0  0  0  0  0  0  0
  -13.1181  -14.9152    0.0000 C   0  0  0  0  0  0  0  0  0  0  0  0
  -12.9613  -16.4069    0.0000 C   0  0  0  0  0  0  0  0  0  0  0  0
  -11.6622  -17.1569    0.0000 O   0  0  0  0  0  0  0  0  0  0  0  0
  -11.9741  -18.6242    0.0000 C   0  0  0  0  0  0  0  0  0  0  0  0
  -10.9704  -19.7389    0.0000 C   0  0  0  0  0  0  0  0  0  0  0  0
  -11.4339  -21.1655    0.0000 C   0  0  0  0  0  0  0  0  0  0  0  0
  -12.9012  -21.4773    0.0000 O   0  0  0  0  0  0  0  0  0  0  0  0
  -10.4302  -22.2802    0.0000 C   0  0  0  0  0  0  0  0  0  0  0  0
  -10.8938  -23.7068    0.0000 C   0  0  0  0  0  0  0  0  0  0  0  0
   -9.8901  -24.8215    0.0000 C   0  0  0  0  0  0  0  0  0  0  0  0
  -10.3536  -26.2481    0.0000 O   0  0  0  0  0  0  0  0  0  0  0  0
  -11.8208  -26.5599    0.0000 Si  0  0  0  0  0  4  0  0  0  0  0  0
  -11.5090  -28.0272    0.0000 C   0  0  0  0  0  0  0  0  0  0  0  0
  -12.1327  -25.0927    0.0000 C   0  0  0  0  0  0  0  0  0  0  0  0
  -13.2880  -26.8718    0.0000 C   0  0  0  0  0  0  0  0  0  0  0  0
  -13.5999  -25.4046    0.0000 C   0  0  0  0  0  0  0  0  0  0  0  0
  -12.9762  -28.3390    0.0000 C   0  0  0  0  0  0  0  0  0  0  0  0
  -14.7553  -27.1837    0.0000 C   0  0  0  0  0  0  0  0  0  0  0  0
   -8.4229  -24.5096    0.0000 C   0  0  0  0  0  0  0  0  0  0  0  0
   -7.4192  -25.6243    0.0000 O   0  0  0  0  0  0  0  0  0  0  0  0
   -7.8827  -27.0509    0.0000 Si  0  0  0  0  0  4  0  0  0  0  0  0
   -6.4561  -27.5144    0.0000 C   0  0  0  0  0  0  0  0  0  0  0  0
   -9.3093  -26.5874    0.0000 C   0  0  0  0  0  0  0  0  0  0  0  0
   -8.3462  -28.4775    0.0000 C   0  0  0  0  0  0  0  0  0  0  0  0
   -6.9196  -28.9410    0.0000 C   0  0  0  0  0  0  0  0  0  0  0  0
   -9.7728  -28.0140    0.0000 C   0  0  0  0  0  0  0  0  0  0  0  0
   -8.8097  -29.9041    0.0000 C   0  0  0  0  0  0  0  0  0  0  0  0
   -7.9593  -23.0830    0.0000 C   0  0  0  0  0  0  0  0  0  0  0  0
   -6.4921  -22.7712    0.0000 C   0  0  0  0  0  0  0  0  0  0  0  0
   -5.4884  -23.8859    0.0000 O   0  0  0  0  0  0  0  0  0  0  0  0
   -4.0212  -23.5740    0.0000 Si  0  0  0  0  0  4  0  0  0  0  0  0
   -3.7093  -25.0412    0.0000 C   0  0  0  0  0  0  0  0  0  0  0  0
   -4.3331  -22.1068    0.0000 C   0  0  0  0  0  0  0  0  0  0  0  0
   -2.5540  -23.2622    0.0000 C   0  0  0  0  0  0  0  0  0  0  0  0
   -2.8658  -21.7949    0.0000 C   0  0  0  0  0  0  0  0  0  0  0  0
   -2.2421  -24.7294    0.0000 C   0  0  0  0  0  0  0  0  0  0  0  0
   -1.0867  -22.9503    0.0000 C   0  0  0  0  0  0  0  0  0  0  0  0
   -6.0286  -21.3446    0.0000 C   0  0  0  0  0  0  0  0  0  0  0  0
   -4.5614  -21.0327    0.0000 C   0  0  0  0  0  0  0  0  0  0  0  0
   -4.0978  -19.6061    0.0000 C   0  0  0  0  0  0  0  0  0  0  0  0
   -2.6306  -19.2943    0.0000 C   0  0  0  0  0  0  0  0  0  0  0  0
   -1.6269  -20.4090    0.0000 C   0  0  0  0  0  0  0  0  0  0  0  0
   -2.1671  -17.8677    0.0000 C   0  0  0  0  0  0  0  0  0  0  0  0
   -0.6999  -17.5558    0.0000 C   0  0  0  0  0  0  0  0  0  0  0  0
   -0.2363  -16.1292    0.0000 C   0  0  0  0  0  0  0  0  0  0  0  0
    1.2309  -15.8174    0.0000 C   0  0  0  0  0  0  0  0  0  0  0  0
    2.2346  -16.9321    0.0000 O   0  0  0  0  0  0  0  0  0  0  0  0
    3.7018  -16.6202    0.0000 Si  0  0  0  0  0  4  0  0  0  0  0  0
    4.0137  -18.0874    0.0000 C   0  0  0  0  0  0  0  0  0  0  0  0
    3.3899  -15.1530    0.0000 C   0  0  0  0  0  0  0  0  0  0  0  0
    5.1690  -16.3083    0.0000 C   0  0  0  0  0  0  0  0  0  0  0  0
    5.2162  -14.9592    0.0000 C   0  0  0  0  0  0  0  0  0  0  0  0
    5.4809  -17.7756    0.0000 C   0  0  0  0  0  0  0  0  0  0  0  0
    6.6633  -16.1776    0.0000 C   0  0  0  0  0  0  0  0  0  0  0  0
    1.6944  -14.3908    0.0000 C   0  0  0  0  0  0  0  0  0  0  0  0
    0.8127  -13.1773    0.0000 O   0  0  0  0  0  0  0  0  0  0  0  0
    1.6944  -11.9637    0.0000 C   0  0  0  0  0  0  0  0  0  0  0  0
    1.2309  -10.5371    0.0000 C   0  0  0  0  0  0  0  0  0  0  0  0
    2.2346   -9.4224    0.0000 C   0  0  0  0  0  0  0  0  0  0  0  0
    3.7018   -9.7343    0.0000 O   0  0  0  0  0  0  0  0  0  0  0  0
    4.7055   -8.6196    0.0000 C   0  0  0  0  0  0  0  0  0  0  0  0
    6.1727   -8.9314    0.0000 C   0  0  0  0  0  0  0  0  0  0  0  0
    7.1764   -7.8167    0.0000 C   0  0  0  0  0  0  0  0  0  0  0  0
    6.7129   -6.3901    0.0000 C   0  0  0  0  0  0  0  0  0  0  0  0
    8.6436   -8.1286    0.0000 C   0  0  0  0  0  0  0  0  0  0  0  0
    9.6473   -7.0139    0.0000 C   0  0  0  0  0  0  0  0  0  0  0  0
   11.1145   -7.3257    0.0000 C   0  0  0  0  0  0  0  0  0  0  0  0
   12.1182   -6.2110    0.0000 C   0  0  0  0  0  0  0  0  0  0  0  0
   13.5855   -6.5229    0.0000 C   0  0  0  0  0  0  0  0  0  0  0  0
   14.5892   -5.4082    0.0000 C   0  0  0  0  0  0  0  0  0  0  0  0
   16.0564   -5.7200    0.0000 C   0  0  0  0  0  0  0  0  0  0  0  0
   16.5199   -7.1466    0.0000 C   0  0  0  0  0  0  0  0  0  0  0  0
   15.5162   -8.2613    0.0000 O   0  0  0  0  0  0  0  0  0  0  0  0
   15.9797   -9.6879    0.0000 C   0  0  0  0  0  0  0  0  0  0  0  0
   17.4470   -9.9998    0.0000 C   0  0  0  0  0  0  0  0  0  0  0  0
   18.4507   -8.8851    0.0000 C   0  0  0  0  0  0  0  0  0  0  0  0
   19.9179   -9.1969    0.0000 O   0  0  0  0  0  0  0  0  0  0  0  0
   20.3814  -10.6235    0.0000 Si  0  0  0  0  0  4  0  0  0  0  0  0
   21.8080  -10.1600    0.0000 C   0  0  0  0  0  0  0  0  0  0  0  0
   18.9548  -11.0871    0.0000 C   0  0  0  0  0  0  0  0  0  0  0  0
   20.8449  -12.0501    0.0000 C   0  0  0  0  0  0  0  0  0  0  0  0
   19.4183  -12.5136    0.0000 C   0  0  0  0  0  0  0  0  0  0  0  0
   22.2715  -11.5866    0.0000 C   0  0  0  0  0  0  0  0  0  0  0  0
   21.3085  -13.4767    0.0000 C   0  0  0  0  0  0  0  0  0  0  0  0
   17.9871   -7.4585    0.0000 C   0  0  0  0  0  0  0  0  0  0  0  0
   18.9908   -6.3438    0.0000 O   0  0  0  0  0  0  0  0  0  0  0  0
   20.4580   -6.6556    0.0000 Si  0  0  0  0  0  4  0  0  0  0  0  0
   20.7699   -5.1884    0.0000 C   0  0  0  0  0  0  0  0  0  0  0  0
   20.1462   -8.1229    0.0000 C   0  0  0  0  0  0  0  0  0  0  0  0
   21.9253   -6.9675    0.0000 C   0  0  0  0  0  0  0  0  0  0  0  0
   22.2371   -5.5003    0.0000 C   0  0  0  0  0  0  0  0  0  0  0  0
   21.6134   -8.4347    0.0000 C   0  0  0  0  0  0  0  0  0  0  0  0
   23.3925   -7.2794    0.0000 C   0  0  0  0  0  0  0  0  0  0  0  0
   14.1256   -3.9816    0.0000 O   0  0  0  0  0  0  0  0  0  0  0  0
   15.1293   -2.8669    0.0000 Si  0  0  0  0  0  4  0  0  0  0  0  0
   16.2440   -3.8706    0.0000 C   0  0  0  0  0  0  0  0  0  0  0  0
   14.0146   -1.8632    0.0000 C   0  0  0  0  0  0  0  0  0  0  0  0
   16.1330   -1.7522    0.0000 C   0  0  0  0  0  0  0  0  0  0  0  0
   17.2477   -2.7559    0.0000 C   0  0  0  0  0  0  0  0  0  0  0  0
   15.0183   -0.7485    0.0000 C   0  0  0  0  0  0  0  0  0  0  0  0
   17.1367   -0.6374    0.0000 C   0  0  0  0  0  0  0  0  0  0  0  0
    9.1838   -5.5873    0.0000 O   0  0  0  0  0  0  0  0  0  0  0  0
   10.1875   -4.4726    0.0000 Si  0  0  0  0  0  4  0  0  0  0  0  0
    9.0728   -3.4689    0.0000 C   0  0  0  0  0  0  0  0  0  0  0  0
   11.3022   -5.4763    0.0000 C   0  0  0  0  0  0  0  0  0  0  0  0
   11.1912   -3.3579    0.0000 C   0  0  0  0  0  0  0  0  0  0  0  0
   10.0765   -2.3542    0.0000 C   0  0  0  0  0  0  0  0  0  0  0  0
   12.3059   -4.3616    0.0000 C   0  0  0  0  0  0  0  0  0  0  0  0
   12.1949   -2.2431    0.0000 C   0  0  0  0  0  0  0  0  0  0  0  0
    4.2420   -7.1930    0.0000 C   0  0  0  0  0  0  0  0  0  0  0  0
    2.7747   -6.8811    0.0000 C   0  0  0  0  0  0  0  0  0  0  0  0
    2.3112   -5.4545    0.0000 O   0  0  0  0  0  0  0  0  0  0  0  0
    3.3149   -4.3398    0.0000 Si  0  0  0  0  0  4  0  0  0  0  0  0
    2.2002   -3.3361    0.0000 C   0  0  0  0  0  0  0  0  0  0  0  0
    4.4296   -5.3435    0.0000 C   0  0  0  0  0  0  0  0  0  0  0  0
    4.3186   -3.2251    0.0000 C   0  0  0  0  0  0  0  0  0  0  0  0
    5.4333   -4.2288    0.0000 C   0  0  0  0  0  0  0  0  0  0  0  0
    3.2039   -2.2214    0.0000 C   0  0  0  0  0  0  0  0  0  0  0  0
    5.3223   -2.1104    0.0000 C   0  0  0  0  0  0  0  0  0  0  0  0
    1.7710   -7.9958    0.0000 C   0  0  0  0  0  0  0  0  0  0  0  0
    0.3038   -7.6840    0.0000 O   0  0  0  0  0  0  0  0  0  0  0  0
   -0.1597   -6.2574    0.0000 Si  0  0  0  0  0  4  0  0  0  0  0  0
   -1.5863   -6.7209    0.0000 C   0  0  0  0  0  0  0  0  0  0  0  0
    1.2669   -5.7939    0.0000 C   0  0  0  0  0  0  0  0  0  0  0  0
   -0.6232   -4.8308    0.0000 C   0  0  0  0  0  0  0  0  0  0  0  0
    0.8034   -4.3673    0.0000 C   0  0  0  0  0  0  0  0  0  0  0  0
   -2.0498   -5.2943    0.0000 C   0  0  0  0  0  0  0  0  0  0  0  0
   -1.0867   -3.4042    0.0000 C   0  0  0  0  0  0  0  0  0  0  0  0
    3.1210  -12.4273    0.0000 C   0  0  0  0  0  0  0  0  0  0  0  0
    3.1210  -13.9273    0.0000 C   0  0  0  0  0  0  0  0  0  0  0  0
    4.3345  -14.8089    0.0000 O   0  0  0  0  0  0  0  0  0  0  0  0
    5.7048  -14.1988    0.0000 Si  0  0  0  0  0  4  0  0  0  0  0  0
    6.4774  -15.4846    0.0000 C   0  0  0  0  0  0  0  0  0  0  0  0
    5.0947  -12.8285    0.0000 C   0  0  0  0  0  0  0  0  0  0  0  0
    7.0752  -13.5887    0.0000 C   0  0  0  0  0  0  0  0  0  0  0  0
    6.4650  -12.2184    0.0000 C   0  0  0  0  0  0  0  0  0  0  0  0
    7.6853  -14.9590    0.0000 C   0  0  0  0  0  0  0  0  0  0  0  0
    8.4455  -12.9786    0.0000 C   0  0  0  0  0  0  0  0  0  0  0  0
    0.3038  -18.6705    0.0000 O   0  0  0  0  0  0  0  0  0  0  0  0
    1.7710  -18.3587    0.0000 Si  0  0  0  0  0  4  0  0  0  0  0  0
    2.0829  -19.8259    0.0000 C   0  0  0  0  0  0  0  0  0  0  0  0
    1.7989  -17.5620    0.0000 C   0  0  0  0  0  0  0  0  0  0  0  0
    3.2383  -18.0468    0.0000 C   0  0  0  0  0  0  0  0  0  0  0  0
    3.5501  -19.5140    0.0000 C   0  0  0  0  0  0  0  0  0  0  0  0
    3.6519  -16.6049    0.0000 C   0  0  0  0  0  0  0  0  0  0  0  0
    4.7055  -17.7349    0.0000 C   0  0  0  0  0  0  0  0  0  0  0  0
   -7.0323  -20.2299    0.0000 O   0  0  0  0  0  0  0  0  0  0  0  0
   -6.5688  -18.8033    0.0000 Si  0  0  0  0  0  4  0  0  0  0  0  0
   -7.9953  -18.3398    0.0000 C   0  0  0  0  0  0  0  0  0  0  0  0
   -5.1422  -19.2668    0.0000 C   0  0  0  0  0  0  0  0  0  0  0  0
   -6.1052  -17.3767    0.0000 C   0  0  0  0  0  0  0  0  0  0  0  0
   -4.6786  -17.8402    0.0000 C   0  0  0  0  0  0  0  0  0  0  0  0
   -7.5318  -16.9132    0.0000 C   0  0  0  0  0  0  0  0  0  0  0  0
   -5.6417  -15.9501    0.0000 C   0  0  0  0  0  0  0  0  0  0  0  0
   -8.9630  -21.9683    0.0000 O   0  0  0  0  0  0  0  0  0  0  0  0
  -13.4659  -18.7810    0.0000 C   0  0  0  0  0  0  0  0  0  0  0  0
  -14.0760  -17.4106    0.0000 C   0  0  0  0  0  0  0  0  0  0  0  0
  -15.5432  -17.0988    0.0000 O   0  0  0  0  0  0  0  0  0  0  0  0
  -16.5469  -18.2135    0.0000 Si  0  0  0  0  0  4  0  0  0  0  0  0
  -17.6616  -17.2098    0.0000 C   0  0  0  0  0  0  0  0  0  0  0  0
  -15.4322  -19.2172    0.0000 C   0  0  0  0  0  0  0  0  0  0  0  0
  -17.5506  -19.3282    0.0000 C   0  0  0  0  0  0  0  0  0  0  0  0
  -16.4359  -20.3319    0.0000 C   0  0  0  0  0  0  0  0  0  0  0  0
  -18.6653  -18.3245    0.0000 C   0  0  0  0  0  0  0  0  0  0  0  0
  -18.5543  -20.4429    0.0000 C   0  0  0  0  0  0  0  0  0  0  0  0
  -12.3037   -9.4182    0.0000 C   0  0  0  0  0  0  0  0  0  0  0  0
  -11.9918   -7.9510    0.0000 C   0  0  0  0  0  0  0  0  0  0  0  0
  -12.9955   -6.8363    0.0000 O   0  0  0  0  0  0  0  0  0  0  0  0
  -14.4627   -7.1482    0.0000 Si  0  0  0  0  0  4  0  0  0  0  0  0
  -14.7746   -5.6810    0.0000 C   0  0  0  0  0  0  0  0  0  0  0  0
  -14.1508   -8.6154    0.0000 C   0  0  0  0  0  0  0  0  0  0  0  0
  -15.9299   -7.4600    0.0000 C   0  0  0  0  0  0  0  0  0  0  0  0
  -15.6181   -8.9273    0.0000 C   0  0  0  0  0  0  0  0  0  0  0  0
  -16.2418   -5.9928    0.0000 C   0  0  0  0  0  0  0  0  0  0  0  0
  -17.3971   -7.7719    0.0000 C   0  0  0  0  0  0  0  0  0  0  0  0
   -1.5000   -0.0000    0.0000 O   0  0  0  0  0  0  0  0  0  0  0  0
   -0.7500    1.2990    0.0000 C   0  0  0  0  0  0  0  0  0  0  0  0
    0.7500    1.2990    0.0000 C   0  0  0  0  0  0  0  0  0  0  0  0
    0.0000    2.5981    0.0000 C   0  0  0  0  0  0  0  0  0  0  0  0
   -0.7500    3.8971    0.0000 C   0  0  0  0  0  0  0  0  0  0  0  0
    0.0000    5.1962    0.0000 O   0  0  0  0  0  0  0  0  0  0  0  0
   -2.2500    3.8971    0.0000 C   0  0  0  0  0  0  0  0  0  0  0  0
   -3.0000    5.1962    0.0000 O   0  0  0  0  0  0  0  0  0  0  0  0
   -3.0000    2.5981    0.0000 C   0  0  0  0  0  0  0  0  0  0  0  0
   -4.5000    2.5981    0.0000 C   0  0  0  0  0  0  0  0  0  0  0  0
   -5.2500    1.2990    0.0000 C   0  0  0  0  0  0  0  0  0  0  0  0
   -6.7500    1.2990    0.0000 C   0  0  0  0  0  0  0  0  0  0  0  0
   -7.5000    0.0000    0.0000 O   0  0  0  0  0  0  0  0  0  0  0  0
   -9.0000   -0.0000    0.0000 Si  0  0  0  0  0  4  0  0  0  0  0  0
   -9.0000   -1.5000    0.0000 C   0  0  0  0  0  0  0  0  0  0  0  0
   -9.0000    1.5000    0.0000 C   0  0  0  0  0  0  0  0  0  0  0  0
  -10.5000    0.0000    0.0000 C   0  0  0  0  0  0  0  0  0  0  0  0
  -10.5000    1.5000    0.0000 C   0  0  0  0  0  0  0  0  0  0  0  0
  -10.5000   -1.5000    0.0000 C   0  0  0  0  0  0  0  0  0  0  0  0
  -12.0000    0.0000    0.0000 C   0  0  0  0  0  0  0  0  0  0  0  0
   -4.5000    0.0000    0.0000 O   0  0  0  0  0  0  0  0  0  0  0  0
   -5.2500   -1.2990    0.0000 Si  0  0  0  0  0  4  0  0  0  0  0  0
   -3.8692   -1.8851    0.0000 C   0  0  0  0  0  0  0  0  0  0  0  0
   -6.5490   -0.5490    0.0000 C   0  0  0  0  0  0  0  0  0  0  0  0
   -6.0000   -2.5981    0.0000 C   0  0  0  0  0  0  0  0  0  0  0  0
   -7.2990   -1.8481    0.0000 C   0  0  0  0  0  0  0  0  0  0  0  0
   -4.7010   -3.3481    0.0000 C   0  0  0  0  0  0  0  0  0  0  0  0
   -6.7500   -3.8971    0.0000 C   0  0  0  0  0  0  0  0  0  0  0  0
   -2.2500    1.2990    0.0000 O   0  0  0  0  0  0  0  0  0  0  0  0
  1  2  2  0
  2  3  1  0
  3  4  1  0
  4  5  1  1
  5  6  1  0
  6  7  1  6
  6  8  1  0
  8  9  1  0
  9 10  2  0
 10 11  1  0
 11 12  1  6
 11 13  1  0
 13 14  1  0
 15 14  1  1
 15 16  1  0
 16 17  1  0
 17 18  1  1
 18 19  1  0
 19 20  1  0
 20 21  1  0
 22 21  1  1
 22 23  1  0
 23 24  1  0
 24 25  1  1
 25 26  1  0
 26 27  1  1
 26 28  1  0
 28 29  1  1
 29 30  1  0
 30 31  1  6
 31 32  1  0
 32 33  1  0
 32 34  1  0
 32 35  1  0
 35 36  1  0
 35 37  1  0
 35 38  1  0
 30 39  1  0
 39 40  1  1
 40 41  1  0
 41 42  1  0
 41 43  1  0
 41 44  1  0
 44 45  1  0
 44 46  1  0
 44 47  1  0
 39 48  1  0
 48 49  1  0
 49 50  1  6
 50 51  1  0
 51 52  1  0
 51 53  1  0
 51 54  1  0
 54 55  1  0
 54 56  1  0
 54 57  1  0
 49 58  1  0
 58 59  1  1
 59 60  1  0
 60 61  1  0
 61 62  1  0
 61 63  2  0
 63 64  1  0
 64 65  1  1
 66 65  1  6
 66 67  1  0
 67 68  1  0
 68 69  1  0
 68 70  1  0
 68 71  1  0
 71 72  1  0
 71 73  1  0
 71 74  1  0
 66 75  1  0
 75 76  1  1
 76 77  1  0
 77 78  1  1
 79 78  1  6
 79 80  1  0
 80 81  1  0
 81 82  1  6
 82 83  1  0
 83 84  1  0
 83 85  2  0
 85 86  1  0
 86 87  1  6
 87 88  1  0
 88 89  2  0
 89 90  1  0
 90 91  1  1
 92 91  1  6
 92 93  1  0
 93 94  1  0
 94 95  1  0
 95 96  1  0
 96 97  1  1
 97 98  1  0
 98 99  1  0
 98100  1  0
 98101  1  0
101102  1  0
101103  1  0
101104  1  0
 96105  1  0
105106  1  1
106107  1  0
107108  1  0
107109  1  0
107110  1  0
110111  1  0
110112  1  0
110113  1  0
 90114  1  0
114115  1  0
115116  1  0
115117  1  0
115118  1  0
118119  1  0
118120  1  0
118121  1  0
 86122  1  0
122123  1  0
123124  1  0
123125  1  0
123126  1  0
126127  1  0
126128  1  0
126129  1  0
 81130  1  0
130131  1  0
131132  1  1
132133  1  0
133134  1  0
133135  1  0
133136  1  0
136137  1  0
136138  1  0
136139  1  0
131140  1  0
140141  1  1
141142  1  0
142143  1  0
142144  1  0
142145  1  0
145146  1  0
145147  1  0
145148  1  0
 77149  1  0
149150  1  0
150151  1  1
151152  1  0
152153  1  0
152154  1  0
152155  1  0
155156  1  0
155157  1  0
155158  1  0
 64159  1  0
159160  1  0
160161  1  0
160162  1  0
160163  1  0
163164  1  0
163165  1  0
163166  1  0
 58167  1  0
167168  1  0
168169  1  0
168170  1  0
168171  1  0
171172  1  0
171173  1  0
171174  1  0
 48175  1  6
 24176  1  0
176177  1  0
177178  1  1
178179  1  0
179180  1  0
179181  1  0
179182  1  0
182183  1  0
182184  1  0
182185  1  0
 17186  1  0
186187  1  0
187188  1  1
188189  1  0
189190  1  0
189191  1  0
189192  1  0
192193  1  0
192194  1  0
192195  1  0
  4196  1  0
196197  1  0
197198  1  6
197199  1  0
199200  1  0
200201  1  6
200202  1  0
202203  1  1
202204  1  0
204205  1  6
206205  1  6
206207  1  0
207208  1  0
208209  1  0
209210  1  0
209211  1  0
209212  1  0
212213  1  0
212214  1  0
212215  1  0
206216  1  0
216217  1  0
217218  1  0
217219  1  0
217220  1  0
220221  1  0
220222  1  0
220223  1  0
204224  1  0
198  2  1  0
187 15  1  0
224197  1  0
177 22  1  0
175 28  1  0
150 75  1  0
140 79  1  0
105 92  1  0
M  END
$$$$
41
     RDKit          2D

 68 71  0  0  0  0  0  0  0  0999 V2000
    3.0000    0.0000    0.0000 C   0  0  0  0  0  0  0  0  0  0  0  0
    1.5000    0.0000    0.0000 C   0  0  0  0  0  0  0  0  0  0  0  0
    0.7500   -1.2990    0.0000 C   0  0  0  0  0  0  0  0  0  0  0  0
   -0.7500   -1.2990    0.0000 C   0  0  0  0  0  0  0  0  0  0  0  0
   -1.5000   -2.5981    0.0000 C   0  0  0  0  0  0  0  0  0  0  0  0
   -3.0000   -2.5981    0.0000 C   0  0  0  0  0  0  0  0  0  0  0  0
   -3.7500   -1.2990    0.0000 O   0  0  0  0  0  0  0  0  0  0  0  0
   -3.7500   -3.8971    0.0000 C   0  0  0  0  0  0  0  0  0  0  0  0
   -5.2500   -3.8971    0.0000 C   0  0  0  0  0  0  0  0  0  0  0  0
   -6.0000   -5.1962    0.0000 C   0  0  0  0  0  0  0  0  0  0  0  0
   -7.5000   -5.1962    0.0000 Sn  0  0  0  0  0  4  0  0  0  0  0  0
   -7.5000   -6.6962    0.0000 C   0  0  0  0  0  0  0  0  0  0  0  0
   -8.7990   -7.4462    0.0000 C   0  0  0  0  0  0  0  0  0  0  0  0
   -8.7990   -8.9462    0.0000 C   0  0  0  0  0  0  0  0  0  0  0  0
  -10.0981   -9.6962    0.0000 C   0  0  0  0  0  0  0  0  0  0  0  0
   -7.5000   -3.6962    0.0000 C   0  0  0  0  0  0  0  0  0  0  0  0
   -8.7990   -2.9462    0.0000 C   0  0  0  0  0  0  0  0  0  0  0  0
   -8.7990   -1.4462    0.0000 C   0  0  0  0  0  0  0  0  0  0  0  0
  -10.0981   -0.6962    0.0000 C   0  0  0  0  0  0  0  0  0  0  0  0
   -9.0000   -5.1962    0.0000 C   0  0  0  0  0  0  0  0  0  0  0  0
   -9.7500   -3.8971    0.0000 C   0  0  0  0  0  0  0  0  0  0  0  0
  -11.2500   -3.8971    0.0000 C   0  0  0  0  0  0  0  0  0  0  0  0
  -12.0000   -2.5981    0.0000 C   0  0  0  0  0  0  0  0  0  0  0  0
   -1.5000    0.0000    0.0000 O   0  0  0  0  0  0  0  0  0  0  0  0
   -0.7500    1.2990    0.0000 C   0  0  0  0  0  0  0  0  0  0  0  0
    0.7500    1.2990    0.0000 C   0  0  0  0  0  0  0  0  0  0  0  0
    0.0000    2.5981    0.0000 C   0  0  0  0  0  0  0  0  0  0  0  0
   -0.7500    3.8971    0.0000 C   0  0  0  0  0  0  0  0  0  0  0  0
    0.0000    5.1962    0.0000 O   0  0  0  0  0  0  0  0  0  0  0  0
    1.5000    5.1962    0.0000 C   0  0  0  0  0  0  0  0  0  0  0  0
    2.2500    3.8971    0.0000 O   0  0  0  0  0  0  0  0  0  0  0  0
    2.2500    6.4952    0.0000 C   0  0  0  0  0  0  0  0  0  0  0  0
    3.7500    6.4952    0.0000 C   0  0  0  0  0  0  0  0  0  0  0  0
    4.5000    7.7942    0.0000 C   0  0  0  0  0  0  0  0  0  0  0  0
    3.7500    9.0933    0.0000 C   0  0  0  0  0  0  0  0  0  0  0  0
    2.2500    9.0933    0.0000 C   0  0  0  0  0  0  0  0  0  0  0  0
    1.5000    7.7942    0.0000 C   0  0  0  0  0  0  0  0  0  0  0  0
   -2.2500    3.8971    0.0000 C   0  0  0  0  0  0  0  0  0  0  0  0
   -3.0000    5.1962    0.0000 O   0  0  0  0  0  0  0  0  0  0  0  0
   -2.2500    6.4952    0.0000 C   0  0  0  0  0  0  0  0  0  0  0  0
   -0.7500    6.4952    0.0000 O   0  0  0  0  0  0  0  0  0  0  0  0
   -3.0000    7.7942    0.0000 C   0  0  0  0  0  0  0  0  0  0  0  0
   -2.2500    9.0933    0.0000 C   0  0  0  0  0  0  0  0  0  0  0  0
   -3.0000   10.3923    0.0000 C   0  0  0  0  0  0  0  0  0  0  0  0
   -4.5000   10.3923    0.0000 C   0  0  0  0  0  0  0  0  0  0  0  0
   -5.2500    9.0933    0.0000 C   0  0  0  0  0  0  0  0  0  0  0  0
   -4.5000    7.7942    0.0000 C   0  0  0  0  0  0  0  0  0  0  0  0
   -3.0000    2.5981    0.0000 C   0  0  0  0  0  0  0  0  0  0  0  0
   -4.5000    2.5981    0.0000 C   0  0  0  0  0  0  0  0  0  0  0  0
   -5.2500    3.8971    0.0000 C   0  0  0  0  0  0  0  0  0  0  0  0
   -6.7500    3.8971    0.0000 C   0  0  0  0  0  0  0  0  0  0  0  0
   -7.5000    5.1962    0.0000 O   0  0  0  0  0  0  0  0  0  0  0  0
   -9.0000    5.1962    0.0000 Si  0  0  0  0  0  4  0  0  0  0  0  0
   -9.0000    6.6962    0.0000 C   0  0  0  0  0  0  0  0  0  0  0  0
   -9.0000    3.6962    0.0000 C   0  0  0  0  0  0  0  0  0  0  0  0
  -10.5000    5.1962    0.0000 C   0  0  0  0  0  0  0  0  0  0  0  0
  -10.5000    3.6962    0.0000 C   0  0  0  0  0  0  0  0  0  0  0  0
  -10.5000    6.6962    0.0000 C   0  0  0  0  0  0  0  0  0  0  0  0
  -12.0000    5.1962    0.0000 C   0  0  0  0  0  0  0  0  0  0  0  0
   -4.5000    5.1962    0.0000 O   0  0  0  0  0  0  0  0  0  0  0  0
   -5.2500    6.4952    0.0000 Si  0  0  0  0  0  4  0  0  0  0  0  0
   -3.9510    7.2452    0.0000 C   0  0  0  0  0  0  0  0  0  0  0  0
   -6.5490    5.7452    0.0000 C   0  0  0  0  0  0  0  0  0  0  0  0
   -6.0000    7.7942    0.0000 C   0  0  0  0  0  0  0  0  0  0  0  0
   -7.2990    7.0442    0.0000 C   0  0  0  0  0  0  0  0  0  0  0  0
   -4.7010    8.5442    0.0000 C   0  0  0  0  0  0  0  0  0  0  0  0
   -6.7500    9.0933    0.0000 C   0  0  0  0  0  0  0  0  0  0  0  0
   -2.2500    1.2990    0.0000 O   0  0  0  0  0  0  0  0  0  0  0  0
  1  2  2  0
  2  3  1  0
  3  4  1  0
  4  5  1  1
  5  6  1  0
  6  7  1  6
  6  8  1  0
  8  9  1  0
  9 10  2  0
 10 11  1  0
 11 12  1  0
 12 13  1  0
 13 14  1  0
 14 15  1  0
 11 16  1  0
 16 17  1  0
 17 18  1  0
 18 19  1  0
 11 20  1  0
 20 21  1  0
 21 22  1  0
 22 23  1  0
  4 24  1  0
 24 25  1  0
 25 26  1  6
 25 27  1  0
 27 28  1  0
 28 29  1  6
 29 30  1  0
 30 31  2  0
 30 32  1  0
 32 33  2  0
 33 34  1  0
 34 35  2  0
 35 36  1  0
 36 37  2  0
 28 38  1  0
 38 39  1  1
 39 40  1  0
 40 41  2  0
 40 42  1  0
 42 43  2  0
 43 44  1  0
 44 45  2  0
 45 46  1  0
 46 47  2  0
 38 48  1  0
 48 49  1  6
 50 49  1  1
 50 51  1  0
 51 52  1  0
 52 53  1  0
 53 54  1  0
 53 55  1  0
 53 56  1  0
 56 57  1  0
 56 58  1  0
 56 59  1  0
 50 60  1  0
 60 61  1  0
 61 62  1  0
 61 63  1  0
 61 64  1  0
 64 65  1  0
 64 66  1  0
 64 67  1  0
 48 68  1  0
 26  2  1  0
 37 32  1  0
 47 42  1  0
 68 25  1  0
M  END
$$$$
30
     RDKit          2D

107109  0  0  0  0  0  0  0  0999 V2000
   -0.3410  -13.1199    0.0000 C   0  0  0  0  0  0  0  0  0  0  0  0
    0.8726  -12.2383    0.0000 C   0  0  0  0  0  0  0  0  0  0  0  0
    2.2429  -12.8484    0.0000 I   0  0  0  0  0  0  0  0  0  0  0  0
    0.7158  -10.7465    0.0000 C   0  0  0  0  0  0  0  0  0  0  0  0
   -0.6546  -10.1364    0.0000 C   0  0  0  0  0  0  0  0  0  0  0  0
   -0.8113   -8.6446    0.0000 C   0  0  0  0  0  0  0  0  0  0  0  0
    0.4022   -7.7629    0.0000 C   0  0  0  0  0  0  0  0  0  0  0  0
    1.7725   -8.3730    0.0000 O   0  0  0  0  0  0  0  0  0  0  0  0
    2.9860   -7.4913    0.0000 Si  0  0  0  0  0  4  0  0  0  0  0  0
    3.8677   -8.7049    0.0000 C   0  0  0  0  0  0  0  0  0  0  0  0
    2.1043   -6.2778    0.0000 C   0  0  0  0  0  0  0  0  0  0  0  0
    4.1995   -6.6097    0.0000 C   0  0  0  0  0  0  0  0  0  0  0  0
    5.0812   -7.8232    0.0000 C   0  0  0  0  0  0  0  0  0  0  0  0
    3.3179   -5.3961    0.0000 C   0  0  0  0  0  0  0  0  0  0  0  0
    5.4131   -5.7280    0.0000 C   0  0  0  0  0  0  0  0  0  0  0  0
    0.2454   -6.2711    0.0000 C   0  0  0  0  0  0  0  0  0  0  0  0
    1.3601   -5.2674    0.0000 O   0  0  0  0  0  0  0  0  0  0  0  0
    0.7500   -3.8971    0.0000 C   0  0  0  0  0  0  0  0  0  0  0  0
    1.5000   -2.5981    0.0000 C   0  0  0  0  0  0  0  0  0  0  0  0
    0.7500   -1.2990    0.0000 C   0  0  0  0  0  0  0  0  0  0  0  0
    1.5000    0.0000    0.0000 O   0  0  0  0  0  0  0  0  0  0  0  0
    0.7500    1.2990    0.0000 C   0  0  0  0  0  0  0  0  0  0  0  0
    1.5000    2.5981    0.0000 C   0  0  0  0  0  0  0  0  0  0  0  0
    3.0000    2.5981    0.0000 C   0  0  0  0  0  0  0  0  0  0  0  0
    3.7500    1.2990    0.0000 C   0  0  0  0  0  0  0  0  0  0  0  0
    3.7500    3.8971    0.0000 C   0  0  0  0  0  0  0  0  0  0  0  0
    5.2500    3.8971    0.0000 C   0  0  0  0  0  0  0  0  0  0  0  0
    6.0000    5.1962    0.0000 C   0  0  0  0  0  0  0  0  0  0  0  0
    7.5000    5.1962    0.0000 C   0  0  0  0  0  0  0  0  0  0  0  0
    8.2500    6.4952    0.0000 C   0  0  0  0  0  0  0  0  0  0  0  0
    9.7500    6.4952    0.0000 C   0  0  0  0  0  0  0  0  0  0  0  0
   10.5000    7.7942    0.0000 C   0  0  0  0  0  0  0  0  0  0  0  0
    9.7500    9.0933    0.0000 C   0  0  0  0  0  0  0  0  0  0  0  0
    8.2500    9.0933    0.0000 O   0  0  0  0  0  0  0  0  0  0  0  0
    7.5000   10.3923    0.0000 C   0  0  0  0  0  0  0  0  0  0  0  0
    8.2500   11.6913    0.0000 C   0  0  0  0  0  0  0  0  0  0  0  0
    9.7500   11.6913    0.0000 C   0  0  0  0  0  0  0  0  0  0  0  0
   10.5000   12.9904    0.0000 O   0  0  0  0  0  0  0  0  0  0  0  0
    9.7500   14.2894    0.0000 Si  0  0  0  0  0  4  0  0  0  0  0  0
   11.0490   15.0394    0.0000 C   0  0  0  0  0  0  0  0  0  0  0  0
    8.4510   13.5394    0.0000 C   0  0  0  0  0  0  0  0  0  0  0  0
    9.0000   15.5885    0.0000 C   0  0  0  0  0  0  0  0  0  0  0  0
    7.7010   14.8385    0.0000 C   0  0  0  0  0  0  0  0  0  0  0  0
   10.2990   16.3385    0.0000 C   0  0  0  0  0  0  0  0  0  0  0  0
    8.2500   16.8875    0.0000 C   0  0  0  0  0  0  0  0  0  0  0  0
   10.5000   10.3923    0.0000 C   0  0  0  0  0  0  0  0  0  0  0  0
   12.0000   10.3923    0.0000 O   0  0  0  0  0  0  0  0  0  0  0  0
   12.7500   11.6913    0.0000 Si  0  0  0  0  0  4  0  0  0  0  0  0
   14.0490   10.9413    0.0000 C   0  0  0  0  0  0  0  0  0  0  0  0
   11.4510   12.4413    0.0000 C   0  0  0  0  0  0  0  0  0  0  0  0
   13.5000   12.9904    0.0000 C   0  0  0  0  0  0  0  0  0  0  0  0
   14.7990   12.2404    0.0000 C   0  0  0  0  0  0  0  0  0  0  0  0
   12.2010   13.7404    0.0000 C   0  0  0  0  0  0  0  0  0  0  0  0
   14.2500   14.2894    0.0000 C   0  0  0  0  0  0  0  0  0  0  0  0
   10.5000    5.1962    0.0000 O   0  0  0  0  0  0  0  0  0  0  0  0
   12.0000    5.1962    0.0000 Si  0  0  0  0  0  4  0  0  0  0  0  0
   12.0000    3.6962    0.0000 C   0  0  0  0  0  0  0  0  0  0  0  0
   12.0000    6.6962    0.0000 C   0  0  0  0  0  0  0  0  0  0  0  0
   13.5000    5.1962    0.0000 C   0  0  0  0  0  0  0  0  0  0  0  0
   13.5000    3.6962    0.0000 C   0  0  0  0  0  0  0  0  0  0  0  0
   13.5000    6.6962    0.0000 C   0  0  0  0  0  0  0  0  0  0  0  0
   15.0000    5.1962    0.0000 C   0  0  0  0  0  0  0  0  0  0  0  0
    6.0000    2.5981    0.0000 O   0  0  0  0  0  0  0  0  0  0  0  0
    7.5000    2.5981    0.0000 Si  0  0  0  0  0  4  0  0  0  0  0  0
    7.5000    1.0981    0.0000 C   0  0  0  0  0  0  0  0  0  0  0  0
    7.5000    4.0981    0.0000 C   0  0  0  0  0  0  0  0  0  0  0  0
    9.0000    2.5981    0.0000 C   0  0  0  0  0  0  0  0  0  0  0  0
    9.0000    1.0981    0.0000 C   0  0  0  0  0  0  0  0  0  0  0  0
    9.0000    4.0981    0.0000 C   0  0  0  0  0  0  0  0  0  0  0  0
   10.5000    2.5981    0.0000 C   0  0  0  0  0  0  0  0  0  0  0  0
   -0.7500    1.2990    0.0000 C   0  0  0  0  0  0  0  0  0  0  0  0
   -1.5000    0.0000    0.0000 C   0  0  0  0  0  0  0  0  0  0  0  0
   -3.0000    0.0000    0.0000 O   0  0  0  0  0  0  0  0  0  0  0  0
   -3.7500    1.2990    0.0000 Si  0  0  0  0  0  4  0  0  0  0  0  0
   -5.0490    0.5490    0.0000 C   0  0  0  0  0  0  0  0  0  0  0  0
   -2.4510    2.0490    0.0000 C   0  0  0  0  0  0  0  0  0  0  0  0
   -4.5000    2.5981    0.0000 C   0  0  0  0  0  0  0  0  0  0  0  0
   -3.2010    3.3481    0.0000 C   0  0  0  0  0  0  0  0  0  0  0  0
   -5.7990    1.8481    0.0000 C   0  0  0  0  0  0  0  0  0  0  0  0
   -5.2500    3.8971    0.0000 C   0  0  0  0  0  0  0  0  0  0  0  0
   -0.7500   -1.2990    0.0000 C   0  0  0  0  0  0  0  0  0  0  0  0
   -1.5000   -2.5981    0.0000 O   0  0  0  0  0  0  0  0  0  0  0  0
   -3.0000   -2.5981    0.0000 Si  0  0  0  0  0  4  0  0  0  0  0  0
   -3.0000   -4.0981    0.0000 C   0  0  0  0  0  0  0  0  0  0  0  0
   -3.0000   -1.0981    0.0000 C   0  0  0  0  0  0  0  0  0  0  0  0
   -4.5000   -2.5981    0.0000 C   0  0  0  0  0  0  0  0  0  0  0  0
   -4.5000   -4.0981    0.0000 C   0  0  0  0  0  0  0  0  0  0  0  0
   -4.5000   -1.0981    0.0000 C   0  0  0  0  0  0  0  0  0  0  0  0
   -6.0000   -2.5981    0.0000 C   0  0  0  0  0  0  0  0  0  0  0  0
   -0.7418   -4.0539    0.0000 C   0  0  0  0  0  0  0  0  0  0  0  0
   -1.0537   -5.5211    0.0000 C   0  0  0  0  0  0  0  0  0  0  0  0
   -2.4240   -6.1312    0.0000 O   0  0  0  0  0  0  0  0  0  0  0  0
   -2.5808   -7.6230    0.0000 Si  0  0  0  0  0  4  0  0  0  0  0  0
   -1.0890   -7.7798    0.0000 C   0  0  0  0  0  0  0  0  0  0  0  0
   -4.0725   -7.4662    0.0000 C   0  0  0  0  0  0  0  0  0  0  0  0
   -2.7376   -9.1148    0.0000 C   0  0  0  0  0  0  0  0  0  0  0  0
   -1.2458   -9.2716    0.0000 C   0  0  0  0  0  0  0  0  0  0  0  0
   -4.2293   -8.9580    0.0000 C   0  0  0  0  0  0  0  0  0  0  0  0
   -2.8943  -10.6066    0.0000 C   0  0  0  0  0  0  0  0  0  0  0  0
   -1.8681  -11.0180    0.0000 O   0  0  0  0  0  0  0  0  0  0  0  0
   -1.7113  -12.5098    0.0000 Si  0  0  0  0  0  4  0  0  0  0  0  0
   -3.2031  -12.6666    0.0000 C   0  0  0  0  0  0  0  0  0  0  0  0
   -0.2195  -12.3530    0.0000 C   0  0  0  0  0  0  0  0  0  0  0  0
   -1.5545  -14.0016    0.0000 C   0  0  0  0  0  0  0  0  0  0  0  0
   -0.0627  -13.8448    0.0000 C   0  0  0  0  0  0  0  0  0  0  0  0
   -3.0463  -14.1584    0.0000 C   0  0  0  0  0  0  0  0  0  0  0  0
   -1.3977  -15.4934    0.0000 C   0  0  0  0  0  0  0  0  0  0  0  0
  1  2  1  0
  2  3  1  0
  2  4  2  0
  4  5  1  0
  5  6  1  6
  7  6  1  6
  7  8  1  0
  8  9  1  0
  9 10  1  0
  9 11  1  0
  9 12  1  0
 12 13  1  0
 12 14  1  0
 12 15  1  0
  7 16  1  0
 16 17  1  6
 17 18  1  0
 18 19  1  6
 20 19  1  6
 20 21  1  0
 21 22  1  0
 22 23  1  6
 23 24  1  0
 24 25  1  0
 24 26  2  0
 26 27  1  0
 27 28  1  1
 28 29  1  0
 29 30  2  0
 30 31  1  0
 31 32  1  6
 33 32  1  1
 33 34  1  0
 34 35  1  0
 35 36  1  0
 36 37  1  0
 37 38  1  6
 38 39  1  0
 39 40  1  0
 39 41  1  0
 39 42  1  0
 42 43  1  0
 42 44  1  0
 42 45  1  0
 37 46  1  0
 46 47  1  6
 47 48  1  0
 48 49  1  0
 48 50  1  0
 48 51  1  0
 51 52  1  0
 51 53  1  0
 51 54  1  0
 31 55  1  0
 55 56  1  0
 56 57  1  0
 56 58  1  0
 56 59  1  0
 59 60  1  0
 59 61  1  0
 59 62  1  0
 27 63  1  0
 63 64  1  0
 64 65  1  0
 64 66  1  0
 64 67  1  0
 67 68  1  0
 67 69  1  0
 67 70  1  0
 22 71  1  0
 71 72  1  0
 72 73  1  1
 73 74  1  0
 74 75  1  0
 74 76  1  0
 74 77  1  0
 77 78  1  0
 77 79  1  0
 77 80  1  0
 72 81  1  0
 81 82  1  1
 82 83  1  0
 83 84  1  0
 83 85  1  0
 83 86  1  0
 86 87  1  0
 86 88  1  0
 86 89  1  0
 18 90  1  0
 90 91  1  0
 91 92  1  6
 92 93  1  0
 93 94  1  0
 93 95  1  0
 93 96  1  0
 96 97  1  0
 96 98  1  0
 96 99  1  0
  5100  1  0
100101  1  0
101102  1  0
101103  1  0
101104  1  0
104105  1  0
104106  1  0
104107  1  0
 91 16  1  0
 81 20  1  0
 46 33  1  0
M  END
$$$$
S14
     RDKit          2D

106108  0  0  0  0  0  0  0  0999 V2000
    3.4564  -11.9667    0.0000 C   0  0  0  0  0  0  0  0  0  0  0  0
    2.0861  -11.3566    0.0000 C   0  0  0  0  0  0  0  0  0  0  0  0
    0.7158  -10.7465    0.0000 C   0  0  0  0  0  0  0  0  0  0  0  0
   -0.6546  -10.1364    0.0000 C   0  0  0  0  0  0  0  0  0  0  0  0
   -0.8113   -8.6446    0.0000 C   0  0  0  0  0  0  0  0  0  0  0  0
    0.4022   -7.7629    0.0000 C   0  0  0  0  0  0  0  0  0  0  0  0
    1.7725   -8.3730    0.0000 O   0  0  0  0  0  0  0  0  0  0  0  0
    2.9860   -7.4913    0.0000 Si  0  0  0  0  0  4  0  0  0  0  0  0
    3.8677   -8.7049    0.0000 C   0  0  0  0  0  0  0  0  0  0  0  0
    2.1043   -6.2778    0.0000 C   0  0  0  0  0  0  0  0  0  0  0  0
    4.1995   -6.6097    0.0000 C   0  0  0  0  0  0  0  0  0  0  0  0
    5.0812   -7.8232    0.0000 C   0  0  0  0  0  0  0  0  0  0  0  0
    3.3179   -5.3961    0.0000 C   0  0  0  0  0  0  0  0  0  0  0  0
    5.4131   -5.7280    0.0000 C   0  0  0  0  0  0  0  0  0  0  0  0
    0.2454   -6.2711    0.0000 C   0  0  0  0  0  0  0  0  0  0  0  0
    1.3601   -5.2674    0.0000 O   0  0  0  0  0  0  0  0  0  0  0  0
    0.7500   -3.8971    0.0000 C   0  0  0  0  0  0  0  0  0  0  0  0
    1.5000   -2.5981    0.0000 C   0  0  0  0  0  0  0  0  0  0  0  0
    0.7500   -1.2990    0.0000 C   0  0  0  0  0  0  0  0  0  0  0  0
    1.5000    0.0000    0.0000 O   0  0  0  0  0  0  0  0  0  0  0  0
    0.7500    1.2990    0.0000 C   0  0  0  0  0  0  0  0  0  0  0  0
    1.5000    2.5981    0.0000 C   0  0  0  0  0  0  0  0  0  0  0  0
    3.0000    2.5981    0.0000 C   0  0  0  0  0  0  0  0  0  0  0  0
    3.7500    1.2990    0.0000 C   0  0  0  0  0  0  0  0  0  0  0  0
    3.7500    3.8971    0.0000 C   0  0  0  0  0  0  0  0  0  0  0  0
    5.2500    3.8971    0.0000 C   0  0  0  0  0  0  0  0  0  0  0  0
    6.0000    5.1962    0.0000 C   0  0  0  0  0  0  0  0  0  0  0  0
    7.5000    5.1962    0.0000 C   0  0  0  0  0  0  0  0  0  0  0  0
    8.2500    6.4952    0.0000 C   0  0  0  0  0  0  0  0  0  0  0  0
    9.7500    6.4952    0.0000 C   0  0  0  0  0  0  0  0  0  0  0  0
   10.5000    7.7942    0.0000 C   0  0  0  0  0  0  0  0  0  0  0  0
    9.7500    9.0933    0.0000 C   0  0  0  0  0  0  0  0  0  0  0  0
    8.2500    9.0933    0.0000 O   0  0  0  0  0  0  0  0  0  0  0  0
    7.5000   10.3923    0.0000 C   0  0  0  0  0  0  0  0  0  0  0  0
    8.2500   11.6913    0.0000 C   0  0  0  0  0  0  0  0  0  0  0  0
    9.7500   11.6913    0.0000 C   0  0  0  0  0  0  0  0  0  0  0  0
   10.5000   12.9904    0.0000 O   0  0  0  0  0  0  0  0  0  0  0  0
    9.7500   14.2894    0.0000 Si  0  0  0  0  0  4  0  0  0  0  0  0
   11.0490   15.0394    0.0000 C   0  0  0  0  0  0  0  0  0  0  0  0
    8.4510   13.5394    0.0000 C   0  0  0  0  0  0  0  0  0  0  0  0
    9.0000   15.5885    0.0000 C   0  0  0  0  0  0  0  0  0  0  0  0
    7.7010   14.8385    0.0000 C   0  0  0  0  0  0  0  0  0  0  0  0
   10.2990   16.3385    0.0000 C   0  0  0  0  0  0  0  0  0  0  0  0
    8.2500   16.8875    0.0000 C   0  0  0  0  0  0  0  0  0  0  0  0
   10.5000   10.3923    0.0000 C   0  0  0  0  0  0  0  0  0  0  0  0
   12.0000   10.3923    0.0000 O   0  0  0  0  0  0  0  0  0  0  0  0
   12.7500   11.6913    0.0000 Si  0  0  0  0  0  4  0  0  0  0  0  0
   14.0490   10.9413    0.0000 C   0  0  0  0  0  0  0  0  0  0  0  0
   11.4510   12.4413    0.0000 C   0  0  0  0  0  0  0  0  0  0  0  0
   13.5000   12.9904    0.0000 C   0  0  0  0  0  0  0  0  0  0  0  0
   14.7990   12.2404    0.0000 C   0  0  0  0  0  0  0  0  0  0  0  0
   12.2010   13.7404    0.0000 C   0  0  0  0  0  0  0  0  0  0  0  0
   14.2500   14.2894    0.0000 C   0  0  0  0  0  0  0  0  0  0  0  0
   10.5000    5.1962    0.0000 O   0  0  0  0  0  0  0  0  0  0  0  0
   12.0000    5.1962    0.0000 Si  0  0  0  0  0  4  0  0  0  0  0  0
   12.0000    3.6962    0.0000 C   0  0  0  0  0  0  0  0  0  0  0  0
   12.0000    6.6962    0.0000 C   0  0  0  0  0  0  0  0  0  0  0  0
   13.5000    5.1962    0.0000 C   0  0  0  0  0  0  0  0  0  0  0  0
   13.5000    3.6962    0.0000 C   0  0  0  0  0  0  0  0  0  0  0  0
   13.5000    6.6962    0.0000 C   0  0  0  0  0  0  0  0  0  0  0  0
   15.0000    5.1962    0.0000 C   0  0  0  0  0  0  0  0  0  0  0  0
    6.0000    2.5981    0.0000 O   0  0  0  0  0  0  0  0  0  0  0  0
    7.5000    2.5981    0.0000 Si  0  0  0  0  0  4  0  0  0  0  0  0
    7.5000    1.0981    0.0000 C   0  0  0  0  0  0  0  0  0  0  0  0
    7.5000    4.0981    0.0000 C   0  0  0  0  0  0  0  0  0  0  0  0
    9.0000    2.5981    0.0000 C   0  0  0  0  0  0  0  0  0  0  0  0
    9.0000    1.0981    0.0000 C   0  0  0  0  0  0  0  0  0  0  0  0
    9.0000    4.0981    0.0000 C   0  0  0  0  0  0  0  0  0  0  0  0
   10.5000    2.5981    0.0000 C   0  0  0  0  0  0  0  0  0  0  0  0
   -0.7500    1.2990    0.0000 C   0  0  0  0  0  0  0  0  0  0  0  0
   -1.5000    0.0000    0.0000 C   0  0  0  0  0  0  0  0  0  0  0  0
   -3.0000    0.0000    0.0000 O   0  0  0  0  0  0  0  0  0  0  0  0
   -3.7500    1.2990    0.0000 Si  0  0  0  0  0  4  0  0  0  0  0  0
   -5.0490    0.5490    0.0000 C   0  0  0  0  0  0  0  0  0  0  0  0
   -2.4510    2.0490    0.0000 C   0  0  0  0  0  0  0  0  0  0  0  0
   -4.5000    2.5981    0.0000 C   0  0  0  0  0  0  0  0  0  0  0  0
   -3.2010    3.3481    0.0000 C   0  0  0  0  0  0  0  0  0  0  0  0
   -5.7990    1.8481    0.0000 C   0  0  0  0  0  0  0  0  0  0  0  0
   -5.2500    3.8971    0.0000 C   0  0  0  0  0  0  0  0  0  0  0  0
   -0.7500   -1.2990    0.0000 C   0  0  0  0  0  0  0  0  0  0  0  0
   -1.5000   -2.5981    0.0000 O   0  0  0  0  0  0  0  0  0  0  0  0
   -3.0000   -2.5981    0.0000 Si  0  0  0  0  0  4  0  0  0  0  0  0
   -3.0000   -4.0981    0.0000 C   0  0  0  0  0  0  0  0  0  0  0  0
   -3.0000   -1.0981    0.0000 C   0  0  0  0  0  0  0  0  0  0  0  0
   -4.5000   -2.5981    0.0000 C   0  0  0  0  0  0  0  0  0  0  0  0
   -4.5000   -4.0981    0.0000 C   0  0  0  0  0  0  0  0  0  0  0  0
   -4.5000   -1.0981    0.0000 C   0  0  0  0  0  0  0  0  0  0  0  0
   -6.0000   -2.5981    0.0000 C   0  0  0  0  0  0  0  0  0  0  0  0
   -0.7418   -4.0539    0.0000 C   0  0  0  0  0  0  0  0  0  0  0  0
   -1.0537   -5.5211    0.0000 C   0  0  0  0  0  0  0  0  0  0  0  0
   -2.4240   -6.1312    0.0000 O   0  0  0  0  0  0  0  0  0  0  0  0
   -2.5808   -7.6230    0.0000 Si  0  0  0  0  0  4  0  0  0  0  0  0
   -1.0890   -7.7798    0.0000 C   0  0  0  0  0  0  0  0  0  0  0  0
   -4.0725   -7.4662    0.0000 C   0  0  0  0  0  0  0  0  0  0  0  0
   -2.7376   -9.1148    0.0000 C   0  0  0  0  0  0  0  0  0  0  0  0
   -1.2458   -9.2716    0.0000 C   0  0  0  0  0  0  0  0  0  0  0  0
   -4.2293   -8.9580    0.0000 C   0  0  0  0  0  0  0  0  0  0  0  0
   -2.8943  -10.6066    0.0000 C   0  0  0  0  0  0  0  0  0  0  0  0
   -1.8681  -11.0180    0.0000 O   0  0  0  0  0  0  0  0  0  0  0  0
   -1.7113  -12.5098    0.0000 Si  0  0  0  0  0  4  0  0  0  0  0  0
   -3.2031  -12.6666    0.0000 C   0  0  0  0  0  0  0  0  0  0  0  0
   -0.2195  -12.3530    0.0000 C   0  0  0  0  0  0  0  0  0  0  0  0
   -1.5545  -14.0016    0.0000 C   0  0  0  0  0  0  0  0  0  0  0  0
   -0.0627  -13.8448    0.0000 C   0  0  0  0  0  0  0  0  0  0  0  0
   -3.0463  -14.1584    0.0000 C   0  0  0  0  0  0  0  0  0  0  0  0
   -1.3977  -15.4934    0.0000 C   0  0  0  0  0  0  0  0  0  0  0  0
  1  2  1  0
  2  3  3  0
  4  3  1  6
  4  5  1  0
  6  5  1  6
  6  7  1  0
  7  8  1  0
  8  9  1  0
  8 10  1  0
  8 11  1  0
 11 12  1  0
 11 13  1  0
 11 14  1  0
  6 15  1  0
 15 16  1  6
 16 17  1  0
 17 18  1  6
 19 18  1  6
 19 20  1  0
 20 21  1  0
 21 22  1  6
 22 23  1  0
 23 24  1  0
 23 25  2  0
 25 26  1  0
 26 27  1  1
 27 28  1  0
 28 29  2  0
 29 30  1  0
 30 31  1  6
 32 31  1  1
 32 33  1  0
 33 34  1  0
 34 35  1  0
 35 36  1  0
 36 37  1  6
 37 38  1  0
 38 39  1  0
 38 40  1  0
 38 41  1  0
 41 42  1  0
 41 43  1  0
 41 44  1  0
 36 45  1  0
 45 46  1  6
 46 47  1  0
 47 48  1  0
 47 49  1  0
 47 50  1  0
 50 51  1  0
 50 52  1  0
 50 53  1  0
 30 54  1  0
 54 55  1  0
 55 56  1  0
 55 57  1  0
 55 58  1  0
 58 59  1  0
 58 60  1  0
 58 61  1  0
 26 62  1  0
 62 63  1  0
 63 64  1  0
 63 65  1  0
 63 66  1  0
 66 67  1  0
 66 68  1  0
 66 69  1  0
 21 70  1  0
 70 71  1  0
 71 72  1  1
 72 73  1  0
 73 74  1  0
 73 75  1  0
 73 76  1  0
 76 77  1  0
 76 78  1  0
 76 79  1  0
 71 80  1  0
 80 81  1  1
 81 82  1  0
 82 83  1  0
 82 84  1  0
 82 85  1  0
 85 86  1  0
 85 87  1  0
 85 88  1  0
 17 89  1  0
 89 90  1  0
 90 91  1  6
 91 92  1  0
 92 93  1  0
 92 94  1  0
 92 95  1  0
 95 96  1  0
 95 97  1  0
 95 98  1  0
  4 99  1  0
 99100  1  0
100101  1  0
100102  1  0
100103  1  0
103104  1  0
103105  1  0
103106  1  0
 90 15  1  0
 80 19  1  0
 45 32  1  0
M  END
$$$$
29
     RDKit          2D

 92 94  0  0  0  0  0  0  0  0999 V2000
    3.4564  -11.9667    0.0000 C   0  0  0  0  0  0  0  0  0  0  0  0
    2.0861  -11.3566    0.0000 C   0  0  0  0  0  0  0  0  0  0  0  0
    0.7158  -10.7465    0.0000 C   0  0  0  0  0  0  0  0  0  0  0  0
   -0.6546  -10.1364    0.0000 C   0  0  0  0  0  0  0  0  0  0  0  0
   -0.8113   -8.6446    0.0000 C   0  0  0  0  0  0  0  0  0  0  0  0
    0.4022   -7.7629    0.0000 C   0  0  0  0  0  0  0  0  0  0  0  0
    1.7725   -8.3730    0.0000 O   0  0  0  0  0  0  0  0  0  0  0  0
    2.9860   -7.4913    0.0000 Si  0  0  0  0  0  4  0  0  0  0  0  0
    3.8677   -8.7049    0.0000 C   0  0  0  0  0  0  0  0  0  0  0  0
    2.1043   -6.2778    0.0000 C   0  0  0  0  0  0  0  0  0  0  0  0
    4.1995   -6.6097    0.0000 C   0  0  0  0  0  0  0  0  0  0  0  0
    5.0812   -7.8232    0.0000 C   0  0  0  0  0  0  0  0  0  0  0  0
    3.3179   -5.3961    0.0000 C   0  0  0  0  0  0  0  0  0  0  0  0
    5.4131   -5.7280    0.0000 C   0  0  0  0  0  0  0  0  0  0  0  0
    0.2454   -6.2711    0.0000 C   0  0  0  0  0  0  0  0  0  0  0  0
    1.3601   -5.2674    0.0000 O   0  0  0  0  0  0  0  0  0  0  0  0
    0.7500   -3.8971    0.0000 C   0  0  0  0  0  0  0  0  0  0  0  0
    1.5000   -2.5981    0.0000 C   0  0  0  0  0  0  0  0  0  0  0  0
    0.7500   -1.2990    0.0000 C   0  0  0  0  0  0  0  0  0  0  0  0
    1.5000    0.0000    0.0000 O   0  0  0  0  0  0  0  0  0  0  0  0
    0.7500    1.2990    0.0000 C   0  0  0  0  0  0  0  0  0  0  0  0
    1.5000    2.5981    0.0000 C   0  0  0  0  0  0  0  0  0  0  0  0
    3.0000    2.5981    0.0000 C   0  0  0  0  0  0  0  0  0  0  0  0
    3.7500    1.2990    0.0000 C   0  0  0  0  0  0  0  0  0  0  0  0
    3.7500    3.8971    0.0000 C   0  0  0  0  0  0  0  0  0  0  0  0
    5.2500    3.8971    0.0000 C   0  0  0  0  0  0  0  0  0  0  0  0
    6.0000    2.5981    0.0000 O   0  0  0  0  0  0  0  0  0  0  0  0
    6.0000    5.1962    0.0000 C   0  0  0  0  0  0  0  0  0  0  0  0
    7.5000    5.1962    0.0000 C   0  0  0  0  0  0  0  0  0  0  0  0
    8.2500    6.4952    0.0000 C   0  0  0  0  0  0  0  0  0  0  0  0
    9.7500    6.4952    0.0000 C   0  0  0  0  0  0  0  0  0  0  0  0
   10.5000    5.1962    0.0000 O   0  0  0  0  0  0  0  0  0  0  0  0
   10.5000    7.7942    0.0000 C   0  0  0  0  0  0  0  0  0  0  0  0
   12.0000    7.7942    0.0000 C   0  0  0  0  0  0  0  0  0  0  0  0
   12.7500    6.4952    0.0000 O   0  0  0  0  0  0  0  0  0  0  0  0
   14.2500    6.4952    0.0000 C   0  0  0  0  0  0  0  0  0  0  0  0
   15.0000    7.7942    0.0000 C   0  0  0  0  0  0  0  0  0  0  0  0
   14.2500    9.0933    0.0000 C   0  0  0  0  0  0  0  0  0  0  0  0
   15.0000   10.3923    0.0000 O   0  0  0  0  0  0  0  0  0  0  0  0
   16.5000   10.3923    0.0000 Si  0  0  0  0  0  4  0  0  0  0  0  0
   16.5000   11.8923    0.0000 C   0  0  0  0  0  0  0  0  0  0  0  0
   16.5000    8.8923    0.0000 C   0  0  0  0  0  0  0  0  0  0  0  0
   18.0000   10.3923    0.0000 C   0  0  0  0  0  0  0  0  0  0  0  0
   18.0000    8.8923    0.0000 C   0  0  0  0  0  0  0  0  0  0  0  0
   18.0000   11.8923    0.0000 C   0  0  0  0  0  0  0  0  0  0  0  0
   19.5000   10.3923    0.0000 C   0  0  0  0  0  0  0  0  0  0  0  0
   12.7500    9.0933    0.0000 C   0  0  0  0  0  0  0  0  0  0  0  0
   12.0000   10.3923    0.0000 O   0  0  0  0  0  0  0  0  0  0  0  0
   12.7500   11.6913    0.0000 Si  0  0  0  0  0  4  0  0  0  0  0  0
   11.4510   12.4413    0.0000 C   0  0  0  0  0  0  0  0  0  0  0  0
   14.0490   10.9413    0.0000 C   0  0  0  0  0  0  0  0  0  0  0  0
   13.5000   12.9904    0.0000 C   0  0  0  0  0  0  0  0  0  0  0  0
   12.2010   13.7404    0.0000 C   0  0  0  0  0  0  0  0  0  0  0  0
   14.7990   12.2404    0.0000 C   0  0  0  0  0  0  0  0  0  0  0  0
   14.2500   14.2894    0.0000 C   0  0  0  0  0  0  0  0  0  0  0  0
   -0.7500    1.2990    0.0000 C   0  0  0  0  0  0  0  0  0  0  0  0
   -1.5000    0.0000    0.0000 C   0  0  0  0  0  0  0  0  0  0  0  0
   -3.0000    0.0000    0.0000 O   0  0  0  0  0  0  0  0  0  0  0  0
   -3.7500    1.2990    0.0000 Si  0  0  0  0  0  4  0  0  0  0  0  0
   -5.0490    0.5490    0.0000 C   0  0  0  0  0  0  0  0  0  0  0  0
   -2.4510    2.0490    0.0000 C   0  0  0  0  0  0  0  0  0  0  0  0
   -4.5000    2.5981    0.0000 C   0  0  0  0  0  0  0  0  0  0  0  0
   -3.2010    3.3481    0.0000 C   0  0  0  0  0  0  0  0  0  0  0  0
   -5.7990    1.8481    0.0000 C   0  0  0  0  0  0  0  0  0  0  0  0
   -5.2500    3.8971    0.0000 C   0  0  0  0  0  0  0  0  0  0  0  0
   -0.7500   -1.2990    0.0000 C   0  0  0  0  0  0  0  0  0  0  0  0
   -1.5000   -2.5981    0.0000 O   0  0  0  0  0  0  0  0  0  0  0  0
   -3.0000   -2.5981    0.0000 Si  0  0  0  0  0  4  0  0  0  0  0  0
   -3.0000   -4.0981    0.0000 C   0  0  0  0  0  0  0  0  0  0  0  0
   -3.0000   -1.0981    0.0000 C   0  0  0  0  0  0  0  0  0  0  0  0
   -4.5000   -2.5981    0.0000 C   0  0  0  0  0  0  0  0  0  0  0  0
   -4.5000   -4.0981    0.0000 C   0  0  0  0  0  0  0  0  0  0  0  0
   -4.5000   -1.0981    0.0000 C   0  0  0  0  0  0  0  0  0  0  0  0
   -6.0000   -2.5981    0.0000 C   0  0  0  0  0  0  0  0  0  0  0  0
   -0.7418   -4.0539    0.0000 C   0  0  0  0  0  0  0  0  0  0  0  0
   -1.0537   -5.5211    0.0000 C   0  0  0  0  0  0  0  0  0  0  0  0
   -2.4240   -6.1312    0.0000 O   0  0  0  0  0  0  0  0  0  0  0  0
   -2.5808   -7.6230    0.0000 Si  0  0  0  0  0  4  0  0  0  0  0  0
   -4.0725   -7.4662    0.0000 C   0  0  0  0  0  0  0  0  0  0  0  0
   -1.0890   -7.7798    0.0000 C   0  0  0  0  0  0  0  0  0  0  0  0
   -2.7376   -9.1148    0.0000 C   0  0  0  0  0  0  0  0  0  0  0  0
   -4.2293   -8.9580    0.0000 C   0  0  0  0  0  0  0  0  0  0  0  0
   -1.2458   -9.2716    0.0000 C   0  0  0  0  0  0  0  0  0  0  0  0
   -2.8943  -10.6066    0.0000 C   0  0  0  0  0  0  0  0  0  0  0  0
   -1.8681  -11.0180    0.0000 O   0  0  0  0  0  0  0  0  0  0  0  0
   -1.7113  -12.5098    0.0000 Si  0  0  0  0  0  4  0  0  0  0  0  0
   -3.2031  -12.6666    0.0000 C   0  0  0  0  0  0  0  0  0  0  0  0
   -0.2195  -12.3530    0.0000 C   0  0  0  0  0  0  0  0  0  0  0  0
   -1.5545  -14.0016    0.0000 C   0  0  0  0  0  0  0  0  0  0  0  0
   -0.0627  -13.8448    0.0000 C   0  0  0  0  0  0  0  0  0  0  0  0
   -3.0463  -14.1584    0.0000 C   0  0  0  0  0  0  0  0  0  0  0  0
   -1.3977  -15.4934    0.0000 C   0  0  0  0  0  0  0  0  0  0  0  0
  1  2  1  0
  2  3  3  0
  4  3  1  6
  4  5  1  0
  6  5  1  6
  6  7  1  0
  7  8  1  0
  8  9  1  0
  8 10  1  0
  8 11  1  0
 11 12  1  0
 11 13  1  0
 11 14  1  0
  6 15  1  0
 15 16  1  6
 16 17  1  0
 17 18  1  6
 19 18  1  6
 19 20  1  0
 20 21  1  0
 21 22  1  6
 22 23  1  0
 23 24  1  0
 23 25  2  0
 25 26  1  0
 26 27  1  1
 26 28  1  0
 28 29  1  0
 29 30  2  0
 30 31  1  0
 31 32  1  6
 31 33  1  0
 34 33  1  6
 34 35  1  0
 35 36  1  0
 36 37  1  0
 37 38  1  0
 38 39  1  1
 39 40  1  0
 40 41  1  0
 40 42  1  0
 40 43  1  0
 43 44  1  0
 43 45  1  0
 43 46  1  0
 38 47  1  0
 47 48  1  1
 48 49  1  0
 49 50  1  0
 49 51  1  0
 49 52  1  0
 52 53  1  0
 52 54  1  0
 52 55  1  0
 21 56  1  0
 56 57  1  0
 57 58  1  1
 58 59  1  0
 59 60  1  0
 59 61  1  0
 59 62  1  0
 62 63  1  0
 62 64  1  0
 62 65  1  0
 57 66  1  0
 66 67  1  1
 67 68  1  0
 68 69  1  0
 68 70  1  0
 68 71  1  0
 71 72  1  0
 71 73  1  0
 71 74  1  0
 17 75  1  0
 75 76  1  0
 76 77  1  6
 77 78  1  0
 78 79  1  0
 78 80  1  0
 78 81  1  0
 81 82  1  0
 81 83  1  0
 81 84  1  0
  4 85  1  0
 85 86  1  0
 86 87  1  0
 86 88  1  0
 86 89  1  0
 89 90  1  0
 89 91  1  0
 89 92  1  0
 76 15  1  0
 66 19  1  0
 47 34  1  0
M  END
$$$$
32
     RDKit          2D

 43 45  0  0  0  0  0  0  0  0999 V2000
   13.2166   -2.5251    0.0000 C   0  0  0  0  0  0  0  0  0  0  0  0
   11.8463   -1.9150    0.0000 C   0  0  0  0  0  0  0  0  0  0  0  0
   10.4760   -1.3049    0.0000 C   0  0  0  0  0  0  0  0  0  0  0  0
    9.1056   -0.6948    0.0000 C   0  0  0  0  0  0  0  0  0  0  0  0
    8.9488    0.7970    0.0000 O   0  0  0  0  0  0  0  0  0  0  0  0
    7.8921   -1.5765    0.0000 C   0  0  0  0  0  0  0  0  0  0  0  0
    6.5218   -0.9664    0.0000 C   0  0  0  0  0  0  0  0  0  0  0  0
    6.3650    0.5254    0.0000 O   0  0  0  0  0  0  0  0  0  0  0  0
    5.3083   -1.8481    0.0000 C   0  0  0  0  0  0  0  0  0  0  0  0
    3.8817   -1.3846    0.0000 O   0  0  0  0  0  0  0  0  0  0  0  0
    3.0000   -2.5981    0.0000 C   0  0  0  0  0  0  0  0  0  0  0  0
    1.5000   -2.5981    0.0000 C   0  0  0  0  0  0  0  0  0  0  0  0
    0.7500   -1.2990    0.0000 C   0  0  0  0  0  0  0  0  0  0  0  0
    1.5000    0.0000    0.0000 O   0  0  0  0  0  0  0  0  0  0  0  0
    0.7500    1.2990    0.0000 C   0  0  0  0  0  0  0  0  0  0  0  0
    1.5000    2.5981    0.0000 C   0  0  0  0  0  0  0  0  0  0  0  0
    3.0000    2.5981    0.0000 C   0  0  0  0  0  0  0  0  0  0  0  0
    3.7500    1.2990    0.0000 C   0  0  0  0  0  0  0  0  0  0  0  0
    3.7500    3.8971    0.0000 C   0  0  0  0  0  0  0  0  0  0  0  0
    5.2500    3.8971    0.0000 C   0  0  0  0  0  0  0  0  0  0  0  0
    6.0000    2.5981    0.0000 O   0  0  0  0  0  0  0  0  0  0  0  0
    6.0000    5.1962    0.0000 C   0  0  0  0  0  0  0  0  0  0  0  0
    7.5000    5.1962    0.0000 C   0  0  0  0  0  0  0  0  0  0  0  0
    8.2500    6.4952    0.0000 C   0  0  0  0  0  0  0  0  0  0  0  0
    9.7500    6.4952    0.0000 C   0  0  0  0  0  0  0  0  0  0  0  0
   10.5000    5.1962    0.0000 O   0  0  0  0  0  0  0  0  0  0  0  0
   10.5000    7.7942    0.0000 C   0  0  0  0  0  0  0  0  0  0  0  0
   12.0000    7.7942    0.0000 C   0  0  0  0  0  0  0  0  0  0  0  0
   12.7500    6.4952    0.0000 O   0  0  0  0  0  0  0  0  0  0  0  0
   14.2500    6.4952    0.0000 C   0  0  0  0  0  0  0  0  0  0  0  0
   15.0000    7.7942    0.0000 C   0  0  0  0  0  0  0  0  0  0  0  0
   14.2500    9.0933    0.0000 C   0  0  0  0  0  0  0  0  0  0  0  0
   15.0000   10.3923    0.0000 O   0  0  0  0  0  0  0  0  0  0  0  0
   12.7500    9.0933    0.0000 C   0  0  0  0  0  0  0  0  0  0  0  0
   12.0000   10.3923    0.0000 O   0  0  0  0  0  0  0  0  0  0  0  0
   -0.7500    1.2990    0.0000 C   0  0  0  0  0  0  0  0  0  0  0  0
   -1.5000    0.0000    0.0000 C   0  0  0  0  0  0  0  0  0  0  0  0
   -3.0000    0.0000    0.0000 O   0  0  0  0  0  0  0  0  0  0  0  0
   -0.7500   -1.2990    0.0000 C   0  0  0  0  0  0  0  0  0  0  0  0
   -1.5000   -2.5981    0.0000 O   0  0  0  0  0  0  0  0  0  0  0  0
    3.8817   -3.8116    0.0000 C   0  0  0  0  0  0  0  0  0  0  0  0
    5.3083   -3.3481    0.0000 C   0  0  0  0  0  0  0  0  0  0  0  0
    6.5218   -4.2298    0.0000 O   0  0  0  0  0  0  0  0  0  0  0  0
  1  2  1  0
  2  3  3  0
  3  4  1  0
  4  5  1  1
  4  6  1  0
  6  7  1  0
  7  8  1  6
  7  9  1  0
  9 10  1  6
 10 11  1  0
 11 12  1  6
 13 12  1  6
 13 14  1  0
 14 15  1  0
 15 16  1  6
 16 17  1  0
 17 18  1  0
 17 19  2  0
 19 20  1  0
 20 21  1  1
 20 22  1  0
 22 23  1  0
 23 24  2  0
 24 25  1  0
 25 26  1  6
 25 27  1  0
 28 27  1  6
 28 29  1  0
 29 30  1  0
 30 31  1  0
 31 32  1  0
 32 33  1  1
 32 34  1  0
 34 35  1  1
 15 36  1  0
 36 37  1  0
 37 38  1  1
 37 39  1  0
 39 40  1  1
 11 41  1  0
 41 42  1  0
 42 43  1  6
 42  9  1  0
 39 13  1  0
 34 28  1  0
M  END
$$$$
C-vinylstannane
     RDKit          2D

119121  0  0  0  0  0  0  0  0999 V2000
    6.4467   -9.7941    0.0000 C   0  0  0  0  0  0  0  0  0  0  0  0
    4.9549   -9.9509    0.0000 C   0  0  0  0  0  0  0  0  0  0  0  0
    4.3448  -11.3213    0.0000 C   0  0  0  0  0  0  0  0  0  0  0  0
    2.8530  -11.4780    0.0000 C   0  0  0  0  0  0  0  0  0  0  0  0
    2.2429  -12.8484    0.0000 Sn  0  0  0  0  0  4  0  0  0  0  0  0
    1.6328  -14.2187    0.0000 C   0  0  0  0  0  0  0  0  0  0  0  0
    2.5144  -15.4322    0.0000 C   0  0  0  0  0  0  0  0  0  0  0  0
    1.9043  -16.8025    0.0000 C   0  0  0  0  0  0  0  0  0  0  0  0
    2.7860  -18.0161    0.0000 C   0  0  0  0  0  0  0  0  0  0  0  0
    3.6132  -13.4585    0.0000 C   0  0  0  0  0  0  0  0  0  0  0  0
    3.7700  -14.9503    0.0000 C   0  0  0  0  0  0  0  0  0  0  0  0
    5.1403  -15.5604    0.0000 C   0  0  0  0  0  0  0  0  0  0  0  0
    5.2971  -17.0521    0.0000 C   0  0  0  0  0  0  0  0  0  0  0  0
    0.8726  -12.2383    0.0000 C   0  0  0  0  0  0  0  0  0  0  0  0
   -0.3410  -13.1199    0.0000 C   0  0  0  0  0  0  0  0  0  0  0  0
    0.7158  -10.7465    0.0000 C   0  0  0  0  0  0  0  0  0  0  0  0
   -0.6546  -10.1364    0.0000 C   0  0  0  0  0  0  0  0  0  0  0  0
   -0.8113   -8.6446    0.0000 C   0  0  0  0  0  0  0  0  0  0  0  0
    0.4022   -7.7629    0.0000 C   0  0  0  0  0  0  0  0  0  0  0  0
    1.7725   -8.3730    0.0000 O   0  0  0  0  0  0  0  0  0  0  0  0
    2.9860   -7.4913    0.0000 Si  0  0  0  0  0  4  0  0  0  0  0  0
    3.8677   -8.7049    0.0000 C   0  0  0  0  0  0  0  0  0  0  0  0
    2.1043   -6.2778    0.0000 C   0  0  0  0  0  0  0  0  0  0  0  0
    4.1995   -6.6097    0.0000 C   0  0  0  0  0  0  0  0  0  0  0  0
    5.0812   -7.8232    0.0000 C   0  0  0  0  0  0  0  0  0  0  0  0
    3.3179   -5.3961    0.0000 C   0  0  0  0  0  0  0  0  0  0  0  0
    5.4131   -5.7280    0.0000 C   0  0  0  0  0  0  0  0  0  0  0  0
    0.2454   -6.2711    0.0000 C   0  0  0  0  0  0  0  0  0  0  0  0
    1.3601   -5.2674    0.0000 O   0  0  0  0  0  0  0  0  0  0  0  0
    0.7500   -3.8971    0.0000 C   0  0  0  0  0  0  0  0  0  0  0  0
    1.5000   -2.5981    0.0000 C   0  0  0  0  0  0  0  0  0  0  0  0
    0.7500   -1.2990    0.0000 C   0  0  0  0  0  0  0  0  0  0  0  0
    1.5000    0.0000    0.0000 O   0  0  0  0  0  0  0  0  0  0  0  0
    0.7500    1.2990    0.0000 C   0  0  0  0  0  0  0  0  0  0  0  0
    1.5000    2.5981    0.0000 C   0  0  0  0  0  0  0  0  0  0  0  0
    3.0000    2.5981    0.0000 C   0  0  0  0  0  0  0  0  0  0  0  0
    3.7500    1.2990    0.0000 C   0  0  0  0  0  0  0  0  0  0  0  0
    3.7500    3.8971    0.0000 C   0  0  0  0  0  0  0  0  0  0  0  0
    5.2500    3.8971    0.0000 C   0  0  0  0  0  0  0  0  0  0  0  0
    6.0000    5.1962    0.0000 C   0  0  0  0  0  0  0  0  0  0  0  0
    7.5000    5.1962    0.0000 C   0  0  0  0  0  0  0  0  0  0  0  0
    8.2500    6.4952    0.0000 C   0  0  0  0  0  0  0  0  0  0  0  0
    9.7500    6.4952    0.0000 C   0  0  0  0  0  0  0  0  0  0  0  0
   10.5000    7.7942    0.0000 C   0  0  0  0  0  0  0  0  0  0  0  0
    9.7500    9.0933    0.0000 C   0  0  0  0  0  0  0  0  0  0  0  0
    8.2500    9.0933    0.0000 O   0  0  0  0  0  0  0  0  0  0  0  0
    7.5000   10.3923    0.0000 C   0  0  0  0  0  0  0  0  0  0  0  0
    8.2500   11.6913    0.0000 C   0  0  0  0  0  0  0  0  0  0  0  0
    9.7500   11.6913    0.0000 C   0  0  0  0  0  0  0  0  0  0  0  0
   10.5000   12.9904    0.0000 O   0  0  0  0  0  0  0  0  0  0  0  0
    9.7500   14.2894    0.0000 Si  0  0  0  0  0  4  0  0  0  0  0  0
   11.0490   15.0394    0.0000 C   0  0  0  0  0  0  0  0  0  0  0  0
    8.4510   13.5394    0.0000 C   0  0  0  0  0  0  0  0  0  0  0  0
    9.0000   15.5885    0.0000 C   0  0  0  0  0  0  0  0  0  0  0  0
    7.7010   14.8385    0.0000 C   0  0  0  0  0  0  0  0  0  0  0  0
   10.2990   16.3385    0.0000 C   0  0  0  0  0  0  0  0  0  0  0  0
    8.2500   16.8875    0.0000 C   0  0  0  0  0  0  0  0  0  0  0  0
   10.5000   10.3923    0.0000 C   0  0  0  0  0  0  0  0  0  0  0  0
   12.0000   10.3923    0.0000 O   0  0  0  0  0  0  0  0  0  0  0  0
   12.7500   11.6913    0.0000 Si  0  0  0  0  0  4  0  0  0  0  0  0
   14.0490   10.9413    0.0000 C   0  0  0  0  0  0  0  0  0  0  0  0
   11.4510   12.4413    0.0000 C   0  0  0  0  0  0  0  0  0  0  0  0
   13.5000   12.9904    0.0000 C   0  0  0  0  0  0  0  0  0  0  0  0
   14.7990   12.2404    0.0000 C   0  0  0  0  0  0  0  0  0  0  0  0
   12.2010   13.7404    0.0000 C   0  0  0  0  0  0  0  0  0  0  0  0
   14.2500   14.2894    0.0000 C   0  0  0  0  0  0  0  0  0  0  0  0
   10.5000    5.1962    0.0000 O   0  0  0  0  0  0  0  0  0  0  0  0
   12.0000    5.1962    0.0000 Si  0  0  0  0  0  4  0  0  0  0  0  0
   12.0000    3.6962    0.0000 C   0  0  0  0  0  0  0  0  0  0  0  0
   12.0000    6.6962    0.0000 C   0  0  0  0  0  0  0  0  0  0  0  0
   13.5000    5.1962    0.0000 C   0  0  0  0  0  0  0  0  0  0  0  0
   13.5000    3.6962    0.0000 C   0  0  0  0  0  0  0  0  0  0  0  0
   13.5000    6.6962    0.0000 C   0  0  0  0  0  0  0  0  0  0  0  0
   15.0000    5.1962    0.0000 C   0  0  0  0  0  0  0  0  0  0  0  0
    6.0000    2.5981    0.0000 O   0  0  0  0  0  0  0  0  0  0  0  0
    7.5000    2.5981    0.0000 Si  0  0  0  0  0  4  0  0  0  0  0  0
    7.5000    1.0981    0.0000 C   0  0  0  0  0  0  0  0  0  0  0  0
    7.5000    4.0981    0.0000 C   0  0  0  0  0  0  0  0  0  0  0  0
    9.0000    2.5981    0.0000 C   0  0  0  0  0  0  0  0  0  0  0  0
    9.0000    1.0981    0.0000 C   0  0  0  0  0  0  0  0  0  0  0  0
    9.0000    4.0981    0.0000 C   0  0  0  0  0  0  0  0  0  0  0  0
   10.5000    2.5981    0.0000 C   0  0  0  0  0  0  0  0  0  0  0  0
   -0.7500    1.2990    0.0000 C   0  0  0  0  0  0  0  0  0  0  0  0
   -1.5000    0.0000    0.0000 C   0  0  0  0  0  0  0  0  0  0  0  0
   -3.0000    0.0000    0.0000 O   0  0  0  0  0  0  0  0  0  0  0  0
   -3.7500    1.2990    0.0000 Si  0  0  0  0  0  4  0  0  0  0  0  0
   -5.0490    0.5490    0.0000 C   0  0  0  0  0  0  0  0  0  0  0  0
   -2.4510    2.0490    0.0000 C   0  0  0  0  0  0  0  0  0  0  0  0
   -4.5000    2.5981    0.0000 C   0  0  0  0  0  0  0  0  0  0  0  0
   -3.2010    3.3481    0.0000 C   0  0  0  0  0  0  0  0  0  0  0  0
   -5.7990    1.8481    0.0000 C   0  0  0  0  0  0  0  0  0  0  0  0
   -5.2500    3.8971    0.0000 C   0  0  0  0  0  0  0  0  0  0  0  0
   -0.7500   -1.2990    0.0000 C   0  0  0  0  0  0  0  0  0  0  0  0
   -1.5000   -2.5981    0.0000 O   0  0  0  0  0  0  0  0  0  0  0  0
   -3.0000   -2.5981    0.0000 Si  0  0  0  0  0  4  0  0  0  0  0  0
   -3.0000   -4.0981    0.0000 C   0  0  0  0  0  0  0  0  0  0  0  0
   -3.0000   -1.0981    0.0000 C   0  0  0  0  0  0  0  0  0  0  0  0
   -4.5000   -2.5981    0.0000 C   0  0  0  0  0  0  0  0  0  0  0  0
   -4.5000   -4.0981    0.0000 C   0  0  0  0  0  0  0  0  0  0  0  0
   -4.5000   -1.0981    0.0000 C   0  0  0  0  0  0  0  0  0  0  0  0
   -6.0000   -2.5981    0.0000 C   0  0  0  0  0  0  0  0  0  0  0  0
   -0.7418   -4.0539    0.0000 C   0  0  0  0  0  0  0  0  0  0  0  0
   -1.0537   -5.5211    0.0000 C   0  0  0  0  0  0  0  0  0  0  0  0
   -2.4240   -6.1312    0.0000 O   0  0  0  0  0  0  0  0  0  0  0  0
   -2.5808   -7.6230    0.0000 Si  0  0  0  0  0  4  0  0  0  0  0  0
   -4.0725   -7.4662    0.0000 C   0  0  0  0  0  0  0  0  0  0  0  0
   -1.0890   -7.7798    0.0000 C   0  0  0  0  0  0  0  0  0  0  0  0
   -2.7376   -9.1148    0.0000 C   0  0  0  0  0  0  0  0  0  0  0  0
   -4.2293   -8.9580    0.0000 C   0  0  0  0  0  0  0  0  0  0  0  0
   -1.2458   -9.2716    0.0000 C   0  0  0  0  0  0  0  0  0  0  0  0
   -2.8943  -10.6066    0.0000 C   0  0  0  0  0  0  0  0  0  0  0  0
   -1.8681  -11.0180    0.0000 O   0  0  0  0  0  0  0  0  0  0  0  0
   -1.7113  -12.5098    0.0000 Si  0  0  0  0  0  4  0  0  0  0  0  0
   -3.2031  -12.6666    0.0000 C   0  0  0  0  0  0  0  0  0  0  0  0
   -0.2195  -12.3530    0.0000 C   0  0  0  0  0  0  0  0  0  0  0  0
   -1.5545  -14.0016    0.0000 C   0  0  0  0  0  0  0  0  0  0  0  0
   -0.0627  -13.8448    0.0000 C   0  0  0  0  0  0  0  0  0  0  0  0
   -3.0463  -14.1584    0.0000 C   0  0  0  0  0  0  0  0  0  0  0  0
   -1.3977  -15.4934    0.0000 C   0  0  0  0  0  0  0  0  0  0  0  0
  1  2  1  0
  2  3  1  0
  3  4  1  0
  4  5  1  0
  5  6  1  0
  6  7  1  0
  7  8  1  0
  8  9  1  0
  5 10  1  0
 10 11  1  0
 11 12  1  0
 12 13  1  0
  5 14  1  0
 14 15  1  0
 14 16  2  0
 16 17  1  0
 17 18  1  6
 19 18  1  6
 19 20  1  0
 20 21  1  0
 21 22  1  0
 21 23  1  0
 21 24  1  0
 24 25  1  0
 24 26  1  0
 24 27  1  0
 19 28  1  0
 28 29  1  6
 29 30  1  0
 30 31  1  6
 32 31  1  6
 32 33  1  0
 33 34  1  0
 34 35  1  6
 35 36  1  0
 36 37  1  0
 36 38  2  0
 38 39  1  0
 39 40  1  1
 40 41  1  0
 41 42  2  0
 42 43  1  0
 43 44  1  6
 45 44  1  1
 45 46  1  0
 46 47  1  0
 47 48  1  0
 48 49  1  0
 49 50  1  6
 50 51  1  0
 51 52  1  0
 51 53  1  0
 51 54  1  0
 54 55  1  0
 54 56  1  0
 54 57  1  0
 49 58  1  0
 58 59  1  6
 59 60  1  0
 60 61  1  0
 60 62  1  0
 60 63  1  0
 63 64  1  0
 63 65  1  0
 63 66  1  0
 43 67  1  0
 67 68  1  0
 68 69  1  0
 68 70  1  0
 68 71  1  0
 71 72  1  0
 71 73  1  0
 71 74  1  0
 39 75  1  0
 75 76  1  0
 76 77  1  0
 76 78  1  0
 76 79  1  0
 79 80  1  0
 79 81  1  0
 79 82  1  0
 34 83  1  0
 83 84  1  0
 84 85  1  1
 85 86  1  0
 86 87  1  0
 86 88  1  0
 86 89  1  0
 89 90  1  0
 89 91  1  0
 89 92  1  0
 84 93  1  0
 93 94  1  1
 94 95  1  0
 95 96  1  0
 95 97  1  0
 95 98  1  0
 98 99  1  0
 98100  1  0
 98101  1  0
 30102  1  0
102103  1  0
103104  1  6
104105  1  0
105106  1  0
105107  1  0
105108  1  0
108109  1  0
108110  1  0
108111  1  0
 17112  1  0
112113  1  0
113114  1  0
113115  1  0
113116  1  0
116117  1  0
116118  1  0
116119  1  0
103 28  1  0
 93 32  1  0
 58 45  1  0
M  END
$$$$
28
     RDKit          2D

 67 68  0  0  0  0  0  0  0  0999 V2000
    9.7500   -3.8971    0.0000 C   0  0  0  0  0  0  0  0  0  0  0  0
    8.2500   -3.8971    0.0000 C   0  0  0  0  0  0  0  0  0  0  0  0
    7.5000   -2.5981    0.0000 C   0  0  0  0  0  0  0  0  0  0  0  0
    6.0000   -2.5981    0.0000 C   0  0  0  0  0  0  0  0  0  0  0  0
    5.2500   -3.8971    0.0000 O   0  0  0  0  0  0  0  0  0  0  0  0
    5.2500   -1.2990    0.0000 C   0  0  0  0  0  0  0  0  0  0  0  0
    3.7500   -1.2990    0.0000 C   0  0  0  0  0  0  0  0  0  0  0  0
    3.0000   -2.5981    0.0000 C   0  0  0  0  0  0  0  0  0  0  0  0
    3.0000    0.0000    0.0000 C   0  0  0  0  0  0  0  0  0  0  0  0
    1.5000    0.0000    0.0000 C   0  0  0  0  0  0  0  0  0  0  0  0
    0.7500   -1.2990    0.0000 C   0  0  0  0  0  0  0  0  0  0  0  0
   -0.7500   -1.2990    0.0000 C   0  0  0  0  0  0  0  0  0  0  0  0
   -1.5000   -2.5981    0.0000 O   0  0  0  0  0  0  0  0  0  0  0  0
   -3.0000   -2.5981    0.0000 Si  0  0  0  0  0  4  0  0  0  0  0  0
   -3.0000   -4.0981    0.0000 C   0  0  0  0  0  0  0  0  0  0  0  0
   -3.0000   -1.0981    0.0000 C   0  0  0  0  0  0  0  0  0  0  0  0
   -4.5000   -2.5981    0.0000 C   0  0  0  0  0  0  0  0  0  0  0  0
   -4.5000   -1.0981    0.0000 C   0  0  0  0  0  0  0  0  0  0  0  0
   -4.5000   -4.0981    0.0000 C   0  0  0  0  0  0  0  0  0  0  0  0
   -6.0000   -2.5981    0.0000 C   0  0  0  0  0  0  0  0  0  0  0  0
   -1.5000    0.0000    0.0000 C   0  0  0  0  0  0  0  0  0  0  0  0
   -3.0000    0.0000    0.0000 O   0  0  0  0  0  0  0  0  0  0  0  0
   -3.7500    1.2990    0.0000 Si  0  0  0  0  0  4  0  0  0  0  0  0
   -5.0490    0.5490    0.0000 C   0  0  0  0  0  0  0  0  0  0  0  0
   -2.4510    2.0490    0.0000 C   0  0  0  0  0  0  0  0  0  0  0  0
   -4.5000    2.5981    0.0000 C   0  0  0  0  0  0  0  0  0  0  0  0
   -3.2010    3.3481    0.0000 C   0  0  0  0  0  0  0  0  0  0  0  0
   -5.7990    1.8481    0.0000 C   0  0  0  0  0  0  0  0  0  0  0  0
   -5.2500    3.8971    0.0000 C   0  0  0  0  0  0  0  0  0  0  0  0
   -0.7500    1.2990    0.0000 C   0  0  0  0  0  0  0  0  0  0  0  0
   -1.5000    2.5981    0.0000 C   0  0  0  0  0  0  0  0  0  0  0  0
   -0.7500    3.8971    0.0000 C   0  0  0  0  0  0  0  0  0  0  0  0
   -1.3601    5.2674    0.0000 C   0  0  0  0  0  0  0  0  0  0  0  0
   -0.2454    6.2711    0.0000 C   0  0  0  0  0  0  0  0  0  0  0  0
   -0.4022    7.7629    0.0000 O   0  0  0  0  0  0  0  0  0  0  0  0
    0.8113    8.6446    0.0000 Si  0  0  0  0  0  4  0  0  0  0  0  0
   -0.0703    9.8581    0.0000 C   0  0  0  0  0  0  0  0  0  0  0  0
    1.6930    7.4311    0.0000 C   0  0  0  0  0  0  0  0  0  0  0  0
    2.0249    9.5263    0.0000 C   0  0  0  0  0  0  0  0  0  0  0  0
    1.1432   10.7398    0.0000 C   0  0  0  0  0  0  0  0  0  0  0  0
    2.9065    8.3127    0.0000 C   0  0  0  0  0  0  0  0  0  0  0  0
    3.2384   10.4079    0.0000 C   0  0  0  0  0  0  0  0  0  0  0  0
    1.0537    5.5211    0.0000 C   0  0  0  0  0  0  0  0  0  0  0  0
    2.4240    6.1312    0.0000 C   0  0  0  0  0  0  0  0  0  0  0  0
    2.5808    7.6230    0.0000 C   0  0  0  0  0  0  0  0  0  0  0  0
    3.9511    8.2331    0.0000 C   0  0  0  0  0  0  0  0  0  0  0  0
    4.1079    9.7249    0.0000 C   0  0  0  0  0  0  0  0  0  0  0  0
    4.2647   11.2167    0.0000 C   0  0  0  0  0  0  0  0  0  0  0  0
    4.4215   12.7085    0.0000 C   0  0  0  0  0  0  0  0  0  0  0  0
    5.1646    7.3514    0.0000 O   0  0  0  0  0  0  0  0  0  0  0  0
    6.5349    7.9615    0.0000 Si  0  0  0  0  0  4  0  0  0  0  0  0
    7.1450    6.5912    0.0000 C   0  0  0  0  0  0  0  0  0  0  0  0
    5.9248    9.3319    0.0000 C   0  0  0  0  0  0  0  0  0  0  0  0
    7.9052    8.5717    0.0000 C   0  0  0  0  0  0  0  0  0  0  0  0
    7.2951    9.9420    0.0000 C   0  0  0  0  0  0  0  0  0  0  0  0
    8.5153    7.2013    0.0000 C   0  0  0  0  0  0  0  0  0  0  0  0
    9.2756    9.1818    0.0000 C   0  0  0  0  0  0  0  0  0  0  0  0
    3.6375    5.2496    0.0000 O   0  0  0  0  0  0  0  0  0  0  0  0
    3.4807    3.7578    0.0000 Si  0  0  0  0  0  4  0  0  0  0  0  0
    4.9725    3.6010    0.0000 C   0  0  0  0  0  0  0  0  0  0  0  0
    1.9889    3.9146    0.0000 C   0  0  0  0  0  0  0  0  0  0  0  0
    3.3239    2.2660    0.0000 C   0  0  0  0  0  0  0  0  0  0  0  0
    1.8321    2.4228    0.0000 C   0  0  0  0  0  0  0  0  0  0  0  0
    4.8157    2.1092    0.0000 C   0  0  0  0  0  0  0  0  0  0  0  0
    3.1671    0.7742    0.0000 C   0  0  0  0  0  0  0  0  0  0  0  0
    0.7418    4.0539    0.0000 O   0  0  0  0  0  0  0  0  0  0  0  0
    0.7500    1.2990    0.0000 O   0  0  0  0  0  0  0  0  0  0  0  0
  1  2  2  0
  2  3  1  0
  3  4  1  0
  4  5  1  1
  4  6  1  0
  6  7  2  0
  7  8  1  0
  7  9  1  0
 10  9  1  1
 10 11  1  0
 11 12  1  0
 12 13  1  6
 13 14  1  0
 14 15  1  0
 14 16  1  0
 14 17  1  0
 17 18  1  0
 17 19  1  0
 17 20  1  0
 12 21  1  0
 21 22  1  6
 22 23  1  0
 23 24  1  0
 23 25  1  0
 23 26  1  0
 26 27  1  0
 26 28  1  0
 26 29  1  0
 21 30  1  0
 30 31  1  1
 32 31  1  1
 32 33  1  0
 33 34  1  0
 34 35  1  1
 35 36  1  0
 36 37  1  0
 36 38  1  0
 36 39  1  0
 39 40  1  0
 39 41  1  0
 39 42  1  0
 34 43  1  0
 43 44  1  0
 44 45  1  1
 46 45  1  6
 46 47  1  0
 47 48  3  0
 48 49  1  0
 46 50  1  0
 50 51  1  0
 51 52  1  0
 51 53  1  0
 51 54  1  0
 54 55  1  0
 54 56  1  0
 54 57  1  0
 44 58  1  0
 58 59  1  0
 59 60  1  0
 59 61  1  0
 59 62  1  0
 62 63  1  0
 62 64  1  0
 62 65  1  0
 43 66  1  1
 30 67  1  0
 67 10  1  0
 66 32  1  0
M  END
$$$$
27
     RDKit          2D

 64 65  0  0  0  0  0  0  0  0999 V2000
    3.4564  -11.9667    0.0000 C   0  0  0  0  0  0  0  0  0  0  0  0
    2.0861  -11.3566    0.0000 C   0  0  0  0  0  0  0  0  0  0  0  0
    0.7158  -10.7465    0.0000 C   0  0  0  0  0  0  0  0  0  0  0  0
   -0.6546  -10.1364    0.0000 C   0  0  0  0  0  0  0  0  0  0  0  0
   -0.8113   -8.6446    0.0000 C   0  0  0  0  0  0  0  0  0  0  0  0
    0.4022   -7.7629    0.0000 C   0  0  0  0  0  0  0  0  0  0  0  0
    1.7725   -8.3730    0.0000 O   0  0  0  0  0  0  0  0  0  0  0  0
    2.9860   -7.4913    0.0000 Si  0  0  0  0  0  4  0  0  0  0  0  0
    3.8677   -8.7049    0.0000 C   0  0  0  0  0  0  0  0  0  0  0  0
    2.1043   -6.2778    0.0000 C   0  0  0  0  0  0  0  0  0  0  0  0
    4.1995   -6.6097    0.0000 C   0  0  0  0  0  0  0  0  0  0  0  0
    5.0812   -7.8232    0.0000 C   0  0  0  0  0  0  0  0  0  0  0  0
    3.3179   -5.3961    0.0000 C   0  0  0  0  0  0  0  0  0  0  0  0
    5.4131   -5.7280    0.0000 C   0  0  0  0  0  0  0  0  0  0  0  0
    0.2454   -6.2711    0.0000 C   0  0  0  0  0  0  0  0  0  0  0  0
    1.3601   -5.2674    0.0000 O   0  0  0  0  0  0  0  0  0  0  0  0
    0.7500   -3.8971    0.0000 C   0  0  0  0  0  0  0  0  0  0  0  0
    1.5000   -2.5981    0.0000 C   0  0  0  0  0  0  0  0  0  0  0  0
    0.7500   -1.2990    0.0000 C   0  0  0  0  0  0  0  0  0  0  0  0
    1.5000    0.0000    0.0000 O   0  0  0  0  0  0  0  0  0  0  0  0
    0.7500    1.2990    0.0000 C   0  0  0  0  0  0  0  0  0  0  0  0
    1.5000    2.5981    0.0000 C   0  0  0  0  0  0  0  0  0  0  0  0
    3.0000    2.5981    0.0000 C   0  0  0  0  0  0  0  0  0  0  0  0
    3.7500    1.2990    0.0000 C   0  0  0  0  0  0  0  0  0  0  0  0
    3.7500    3.8971    0.0000 C   0  0  0  0  0  0  0  0  0  0  0  0
    5.2500    3.8971    0.0000 C   0  0  0  0  0  0  0  0  0  0  0  0
    6.0000    5.1962    0.0000 O   0  0  0  0  0  0  0  0  0  0  0  0
   -0.7500    1.2990    0.0000 C   0  0  0  0  0  0  0  0  0  0  0  0
   -1.5000    0.0000    0.0000 C   0  0  0  0  0  0  0  0  0  0  0  0
   -3.0000    0.0000    0.0000 O   0  0  0  0  0  0  0  0  0  0  0  0
   -3.7500    1.2990    0.0000 Si  0  0  0  0  0  4  0  0  0  0  0  0
   -5.0490    0.5490    0.0000 C   0  0  0  0  0  0  0  0  0  0  0  0
   -2.4510    2.0490    0.0000 C   0  0  0  0  0  0  0  0  0  0  0  0
   -4.5000    2.5981    0.0000 C   0  0  0  0  0  0  0  0  0  0  0  0
   -3.2010    3.3481    0.0000 C   0  0  0  0  0  0  0  0  0  0  0  0
   -5.7990    1.8481    0.0000 C   0  0  0  0  0  0  0  0  0  0  0  0
   -5.2500    3.8971    0.0000 C   0  0  0  0  0  0  0  0  0  0  0  0
   -0.7500   -1.2990    0.0000 C   0  0  0  0  0  0  0  0  0  0  0  0
   -1.5000   -2.5981    0.0000 O   0  0  0  0  0  0  0  0  0  0  0  0
   -3.0000   -2.5981    0.0000 Si  0  0  0  0  0  4  0  0  0  0  0  0
   -3.0000   -4.0981    0.0000 C   0  0  0  0  0  0  0  0  0  0  0  0
   -3.0000   -1.0981    0.0000 C   0  0  0  0  0  0  0  0  0  0  0  0
   -4.5000   -2.5981    0.0000 C   0  0  0  0  0  0  0  0  0  0  0  0
   -4.5000   -4.0981    0.0000 C   0  0  0  0  0  0  0  0  0  0  0  0
   -4.5000   -1.0981    0.0000 C   0  0  0  0  0  0  0  0  0  0  0  0
   -6.0000   -2.5981    0.0000 C   0  0  0  0  0  0  0  0  0  0  0  0
   -0.7418   -4.0539    0.0000 C   0  0  0  0  0  0  0  0  0  0  0  0
   -1.0537   -5.5211    0.0000 C   0  0  0  0  0  0  0  0  0  0  0  0
   -2.4240   -6.1312    0.0000 O   0  0  0  0  0  0  0  0  0  0  0  0
   -2.5808   -7.6230    0.0000 Si  0  0  0  0  0  4  0  0  0  0  0  0
   -4.0725   -7.4662    0.0000 C   0  0  0  0  0  0  0  0  0  0  0  0
   -1.0890   -7.7798    0.0000 C   0  0  0  0  0  0  0  0  0  0  0  0
   -2.7376   -9.1148    0.0000 C   0  0  0  0  0  0  0  0  0  0  0  0
   -4.2293   -8.9580    0.0000 C   0  0  0  0  0  0  0  0  0  0  0  0
   -1.2458   -9.2716    0.0000 C   0  0  0  0  0  0  0  0  0  0  0  0
   -2.8943  -10.6066    0.0000 C   0  0  0  0  0  0  0  0  0  0  0  0
   -1.8681  -11.0180    0.0000 O   0  0  0  0  0  0  0  0  0  0  0  0
   -1.7113  -12.5098    0.0000 Si  0  0  0  0  0  4  0  0  0  0  0  0
   -3.2031  -12.6666    0.0000 C   0  0  0  0  0  0  0  0  0  0  0  0
   -0.2195  -12.3530    0.0000 C   0  0  0  0  0  0  0  0  0  0  0  0
   -1.5545  -14.0016    0.0000 C   0  0  0  0  0  0  0  0  0  0  0  0
   -0.0627  -13.8448    0.0000 C   0  0  0  0  0  0  0  0  0  0  0  0
   -3.0463  -14.1584    0.0000 C   0  0  0  0  0  0  0  0  0  0  0  0
   -1.3977  -15.4934    0.0000 C   0  0  0  0  0  0  0  0  0  0  0  0
  1  2  1  0
  2  3  3  0
  4  3  1  6
  4  5  1  0
  6  5  1  6
  6  7  1  0
  7  8  1  0
  8  9  1  0
  8 10  1  0
  8 11  1  0
 11 12  1  0
 11 13  1  0
 11 14  1  0
  6 15  1  0
 15 16  1  6
 16 17  1  0
 17 18  1  6
 19 18  1  6
 19 20  1  0
 20 21  1  0
 21 22  1  6
 22 23  1  0
 23 24  1  0
 23 25  2  0
 25 26  1  0
 26 27  2  0
 21 28  1  0
 28 29  1  0
 29 30  1  1
 30 31  1  0
 31 32  1  0
 31 33  1  0
 31 34  1  0
 34 35  1  0
 34 36  1  0
 34 37  1  0
 29 38  1  0
 38 39  1  1
 39 40  1  0
 40 41  1  0
 40 42  1  0
 40 43  1  0
 43 44  1  0
 43 45  1  0
 43 46  1  0
 17 47  1  0
 47 48  1  0
 48 49  1  6
 49 50  1  0
 50 51  1  0
 50 52  1  0
 50 53  1  0
 53 54  1  0
 53 55  1  0
 53 56  1  0
  4 57  1  0
 57 58  1  0
 58 59  1  0
 58 60  1  0
 58 61  1  0
 61 62  1  0
 61 63  1  0
 61 64  1  0
 48 15  1  0
 38 19  1  0
M  END
$$$$
27-alcohol
     RDKit          2D

 64 65  0  0  0  0  0  0  0  0999 V2000
    3.4564  -11.9667    0.0000 C   0  0  0  0  0  0  0  0  0  0  0  0
    2.0861  -11.3566    0.0000 C   0  0  0  0  0  0  0  0  0  0  0  0
    0.7158  -10.7465    0.0000 C   0  0  0  0  0  0  0  0  0  0  0  0
   -0.6546  -10.1364    0.0000 C   0  0  0  0  0  0  0  0  0  0  0  0
   -0.8113   -8.6446    0.0000 C   0  0  0  0  0  0  0  0  0  0  0  0
    0.4022   -7.7629    0.0000 C   0  0  0  0  0  0  0  0  0  0  0  0
    1.7725   -8.3730    0.0000 O   0  0  0  0  0  0  0  0  0  0  0  0
    2.9860   -7.4913    0.0000 Si  0  0  0  0  0  4  0  0  0  0  0  0
    3.8677   -8.7049    0.0000 C   0  0  0  0  0  0  0  0  0  0  0  0
    2.1043   -6.2778    0.0000 C   0  0  0  0  0  0  0  0  0  0  0  0
    4.1995   -6.6097    0.0000 C   0  0  0  0  0  0  0  0  0  0  0  0
    5.0812   -7.8232    0.0000 C   0  0  0  0  0  0  0  0  0  0  0  0
    3.3179   -5.3961    0.0000 C   0  0  0  0  0  0  0  0  0  0  0  0
    5.4131   -5.7280    0.0000 C   0  0  0  0  0  0  0  0  0  0  0  0
    0.2454   -6.2711    0.0000 C   0  0  0  0  0  0  0  0  0  0  0  0
    1.3601   -5.2674    0.0000 O   0  0  0  0  0  0  0  0  0  0  0  0
    0.7500   -3.8971    0.0000 C   0  0  0  0  0  0  0  0  0  0  0  0
    1.5000   -2.5981    0.0000 C   0  0  0  0  0  0  0  0  0  0  0  0
    0.7500   -1.2990    0.0000 C   0  0  0  0  0  0  0  0  0  0  0  0
    1.5000    0.0000    0.0000 O   0  0  0  0  0  0  0  0  0  0  0  0
    0.7500    1.2990    0.0000 C   0  0  0  0  0  0  0  0  0  0  0  0
    1.5000    2.5981    0.0000 C   0  0  0  0  0  0  0  0  0  0  0  0
    3.0000    2.5981    0.0000 C   0  0  0  0  0  0  0  0  0  0  0  0
    3.7500    1.2990    0.0000 C   0  0  0  0  0  0  0  0  0  0  0  0
    3.7500    3.8971    0.0000 C   0  0  0  0  0  0  0  0  0  0  0  0
    5.2500    3.8971    0.0000 C   0  0  0  0  0  0  0  0  0  0  0  0
    6.0000    5.1962    0.0000 O   0  0  0  0  0  0  0  0  0  0  0  0
   -0.7500    1.2990    0.0000 C   0  0  0  0  0  0  0  0  0  0  0  0
   -1.5000    0.0000    0.0000 C   0  0  0  0  0  0  0  0  0  0  0  0
   -3.0000    0.0000    0.0000 O   0  0  0  0  0  0  0  0  0  0  0  0
   -3.7500    1.2990    0.0000 Si  0  0  0  0  0  4  0  0  0  0  0  0
   -5.0490    0.5490    0.0000 C   0  0  0  0  0  0  0  0  0  0  0  0
   -2.4510    2.0490    0.0000 C   0  0  0  0  0  0  0  0  0  0  0  0
   -4.5000    2.5981    0.0000 C   0  0  0  0  0  0  0  0  0  0  0  0
   -3.2010    3.3481    0.0000 C   0  0  0  0  0  0  0  0  0  0  0  0
   -5.7990    1.8481    0.0000 C   0  0  0  0  0  0  0  0  0  0  0  0
   -5.2500    3.8971    0.0000 C   0  0  0  0  0  0  0  0  0  0  0  0
   -0.7500   -1.2990    0.0000 C   0  0  0  0  0  0  0  0  0  0  0  0
   -1.5000   -2.5981    0.0000 O   0  0  0  0  0  0  0  0  0  0  0  0
   -3.0000   -2.5981    0.0000 Si  0  0  0  0  0  4  0  0  0  0  0  0
   -3.0000   -4.0981    0.0000 C   0  0  0  0  0  0  0  0  0  0  0  0
   -3.0000   -1.0981    0.0000 C   0  0  0  0  0  0  0  0  0  0  0  0
   -4.5000   -2.5981    0.0000 C   0  0  0  0  0  0  0  0  0  0  0  0
   -4.5000   -4.0981    0.0000 C   0  0  0  0  0  0  0  0  0  0  0  0
   -4.5000   -1.0981    0.0000 C   0  0  0  0  0  0  0  0  0  0  0  0
   -6.0000   -2.5981    0.0000 C   0  0  0  0  0  0  0  0  0  0  0  0
   -0.7418   -4.0539    0.0000 C   0  0  0  0  0  0  0  0  0  0  0  0
   -1.0537   -5.5211    0.0000 C   0  0  0  0  0  0  0  0  0  0  0  0
   -2.4240   -6.1312    0.0000 O   0  0  0  0  0  0  0  0  0  0  0  0
   -2.5808   -7.6230    0.0000 Si  0  0  0  0  0  4  0  0  0  0  0  0
   -4.0725   -7.4662    0.0000 C   0  0  0  0  0  0  0  0  0  0  0  0
   -1.0890   -7.7798    0.0000 C   0  0  0  0  0  0  0  0  0  0  0  0
   -2.7376   -9.1148    0.0000 C   0  0  0  0  0  0  0  0  0  0  0  0
   -4.2293   -8.9580    0.0000 C   0  0  0  0  0  0  0  0  0  0  0  0
   -1.2458   -9.2716    0.0000 C   0  0  0  0  0  0  0  0  0  0  0  0
   -2.8943  -10.6066    0.0000 C   0  0  0  0  0  0  0  0  0  0  0  0
   -1.8681  -11.0180    0.0000 O   0  0  0  0  0  0  0  0  0  0  0  0
   -1.7113  -12.5098    0.0000 Si  0  0  0  0  0  4  0  0  0  0  0  0
   -3.2031  -12.6666    0.0000 C   0  0  0  0  0  0  0  0  0  0  0  0
   -0.2195  -12.3530    0.0000 C   0  0  0  0  0  0  0  0  0  0  0  0
   -1.5545  -14.0016    0.0000 C   0  0  0  0  0  0  0  0  0  0  0  0
   -0.0627  -13.8448    0.0000 C   0  0  0  0  0  0  0  0  0  0  0  0
   -3.0463  -14.1584    0.0000 C   0  0  0  0  0  0  0  0  0  0  0  0
   -1.3977  -15.4934    0.0000 C   0  0  0  0  0  0  0  0  0  0  0  0
  1  2  1  0
  2  3  3  0
  4  3  1  6
  4  5  1  0
  6  5  1  6
  6  7  1  0
  7  8  1  0
  8  9  1  0
  8 10  1  0
  8 11  1  0
 11 12  1  0
 11 13  1  0
 11 14  1  0
  6 15  1  0
 15 16  1  6
 16 17  1  0
 17 18  1  6
 19 18  1  6
 19 20  1  0
 20 21  1  0
 21 22  1  6
 22 23  1  0
 23 24  1  0
 23 25  2  0
 25 26  1  0
 26 27  1  0
 21 28  1  0
 28 29  1  0
 29 30  1  1
 30 31  1  0
 31 32  1  0
 31 33  1  0
 31 34  1  0
 34 35  1  0
 34 36  1  0
 34 37  1  0
 29 38  1  0
 38 39  1  1
 39 40  1  0
 40 41  1  0
 40 42  1  0
 40 43  1  0
 43 44  1  0
 43 45  1  0
 43 46  1  0
 17 47  1  0
 47 48  1  0
 48 49  1  6
 49 50  1  0
 50 51  1  0
 50 52  1  0
 50 53  1  0
 53 54  1  0
 53 55  1  0
 53 56  1  0
  4 57  1  0
 57 58  1  0
 58 59  1  0
 58 60  1  0
 58 61  1  0
 61 62  1  0
 61 63  1  0
 61 64  1  0
 48 15  1  0
 38 19  1  0
M  END
$$$$
S13
     RDKit          2D

 69 70  0  0  0  0  0  0  0  0999 V2000
    3.4564  -11.9667    0.0000 C   0  0  0  0  0  0  0  0  0  0  0  0
    2.0861  -11.3566    0.0000 C   0  0  0  0  0  0  0  0  0  0  0  0
    0.7158  -10.7465    0.0000 C   0  0  0  0  0  0  0  0  0  0  0  0
   -0.6546  -10.1364    0.0000 C   0  0  0  0  0  0  0  0  0  0  0  0
   -0.8113   -8.6446    0.0000 C   0  0  0  0  0  0  0  0  0  0  0  0
    0.4022   -7.7629    0.0000 C   0  0  0  0  0  0  0  0  0  0  0  0
    1.7725   -8.3730    0.0000 O   0  0  0  0  0  0  0  0  0  0  0  0
    2.9860   -7.4913    0.0000 Si  0  0  0  0  0  4  0  0  0  0  0  0
    3.8677   -8.7049    0.0000 C   0  0  0  0  0  0  0  0  0  0  0  0
    2.1043   -6.2778    0.0000 C   0  0  0  0  0  0  0  0  0  0  0  0
    4.1995   -6.6097    0.0000 C   0  0  0  0  0  0  0  0  0  0  0  0
    5.0812   -7.8232    0.0000 C   0  0  0  0  0  0  0  0  0  0  0  0
    3.3179   -5.3961    0.0000 C   0  0  0  0  0  0  0  0  0  0  0  0
    5.4131   -5.7280    0.0000 C   0  0  0  0  0  0  0  0  0  0  0  0
    0.2454   -6.2711    0.0000 C   0  0  0  0  0  0  0  0  0  0  0  0
    1.3601   -5.2674    0.0000 O   0  0  0  0  0  0  0  0  0  0  0  0
    0.7500   -3.8971    0.0000 C   0  0  0  0  0  0  0  0  0  0  0  0
    1.5000   -2.5981    0.0000 C   0  0  0  0  0  0  0  0  0  0  0  0
    0.7500   -1.2990    0.0000 C   0  0  0  0  0  0  0  0  0  0  0  0
    1.5000    0.0000    0.0000 O   0  0  0  0  0  0  0  0  0  0  0  0
    0.7500    1.2990    0.0000 C   0  0  0  0  0  0  0  0  0  0  0  0
    1.5000    2.5981    0.0000 C   0  0  0  0  0  0  0  0  0  0  0  0
    3.0000    2.5981    0.0000 C   0  0  0  0  0  0  0  0  0  0  0  0
    3.7500    1.2990    0.0000 C   0  0  0  0  0  0  0  0  0  0  0  0
    3.7500    3.8971    0.0000 C   0  0  0  0  0  0  0  0  0  0  0  0
    5.2500    3.8971    0.0000 C   0  0  0  0  0  0  0  0  0  0  0  0
    6.0000    2.5981    0.0000 O   0  0  0  0  0  0  0  0  0  0  0  0
    6.0000    5.1962    0.0000 O   0  0  0  0  0  0  0  0  0  0  0  0
    7.5000    5.1962    0.0000 C   0  0  0  0  0  0  0  0  0  0  0  0
    7.5000    6.6962    0.0000 C   0  0  0  0  0  0  0  0  0  0  0  0
    7.5000    3.6962    0.0000 C   0  0  0  0  0  0  0  0  0  0  0  0
    9.0000    5.1962    0.0000 C   0  0  0  0  0  0  0  0  0  0  0  0
   -0.7500    1.2990    0.0000 C   0  0  0  0  0  0  0  0  0  0  0  0
   -1.5000    0.0000    0.0000 C   0  0  0  0  0  0  0  0  0  0  0  0
   -3.0000    0.0000    0.0000 O   0  0  0  0  0  0  0  0  0  0  0  0
   -3.7500    1.2990    0.0000 Si  0  0  0  0  0  4  0  0  0  0  0  0
   -5.0490    0.5490    0.0000 C   0  0  0  0  0  0  0  0  0  0  0  0
   -2.4510    2.0490    0.0000 C   0  0  0  0  0  0  0  0  0  0  0  0
   -4.5000    2.5981    0.0000 C   0  0  0  0  0  0  0  0  0  0  0  0
   -3.2010    3.3481    0.0000 C   0  0  0  0  0  0  0  0  0  0  0  0
   -5.7990    1.8481    0.0000 C   0  0  0  0  0  0  0  0  0  0  0  0
   -5.2500    3.8971    0.0000 C   0  0  0  0  0  0  0  0  0  0  0  0
   -0.7500   -1.2990    0.0000 C   0  0  0  0  0  0  0  0  0  0  0  0
   -1.5000   -2.5981    0.0000 O   0  0  0  0  0  0  0  0  0  0  0  0
   -3.0000   -2.5981    0.0000 Si  0  0  0  0  0  4  0  0  0  0  0  0
   -3.0000   -4.0981    0.0000 C   0  0  0  0  0  0  0  0  0  0  0  0
   -3.0000   -1.0981    0.0000 C   0  0  0  0  0  0  0  0  0  0  0  0
   -4.5000   -2.5981    0.0000 C   0  0  0  0  0  0  0  0  0  0  0  0
   -4.5000   -4.0981    0.0000 C   0  0  0  0  0  0  0  0  0  0  0  0
   -4.5000   -1.0981    0.0000 C   0  0  0  0  0  0  0  0  0  0  0  0
   -6.0000   -2.5981    0.0000 C   0  0  0  0  0  0  0  0  0  0  0  0
   -0.7418   -4.0539    0.0000 C   0  0  0  0  0  0  0  0  0  0  0  0
   -1.0537   -5.5211    0.0000 C   0  0  0  0  0  0  0  0  0  0  0  0
   -2.4240   -6.1312    0.0000 O   0  0  0  0  0  0  0  0  0  0  0  0
   -2.5808   -7.6230    0.0000 Si  0  0  0  0  0  4  0  0  0  0  0  0
   -4.0725   -7.4662    0.0000 C   0  0  0  0  0  0  0  0  0  0  0  0
   -1.0890   -7.7798    0.0000 C   0  0  0  0  0  0  0  0  0  0  0  0
   -2.7376   -9.1148    0.0000 C   0  0  0  0  0  0  0  0  0  0  0  0
   -4.2293   -8.9580    0.0000 C   0  0  0  0  0  0  0  0  0  0  0  0
   -1.2458   -9.2716    0.0000 C   0  0  0  0  0  0  0  0  0  0  0  0
   -2.8943  -10.6066    0.0000 C   0  0  0  0  0  0  0  0  0  0  0  0
   -1.8681  -11.0180    0.0000 O   0  0  0  0  0  0  0  0  0  0  0  0
   -1.7113  -12.5098    0.0000 Si  0  0  0  0  0  4  0  0  0  0  0  0
   -3.2031  -12.6666    0.0000 C   0  0  0  0  0  0  0  0  0  0  0  0
   -0.2195  -12.3530    0.0000 C   0  0  0  0  0  0  0  0  0  0  0  0
   -1.5545  -14.0016    0.0000 C   0  0  0  0  0  0  0  0  0  0  0  0
   -0.0627  -13.8448    0.0000 C   0  0  0  0  0  0  0  0  0  0  0  0
   -3.0463  -14.1584    0.0000 C   0  0  0  0  0  0  0  0  0  0  0  0
   -1.3977  -15.4934    0.0000 C   0  0  0  0  0  0  0  0  0  0  0  0
  1  2  1  0
  2  3  3  0
  4  3  1  6
  4  5  1  0
  6  5  1  6
  6  7  1  0
  7  8  1  0
  8  9  1  0
  8 10  1  0
  8 11  1  0
 11 12  1  0
 11 13  1  0
 11 14  1  0
  6 15  1  0
 15 16  1  6
 16 17  1  0
 17 18  1  6
 19 18  1  6
 19 20  1  0
 20 21  1  0
 21 22  1  6
 22 23  1  0
 23 24  1  0
 23 25  2  0
 25 26  1  0
 26 27  2  0
 26 28  1  0
 28 29  1  0
 29 30  1  0
 29 31  1  0
 29 32  1  0
 21 33  1  0
 33 34  1  0
 34 35  1  1
 35 36  1  0
 36 37  1  0
 36 38  1  0
 36 39  1  0
 39 40  1  0
 39 41  1  0
 39 42  1  0
 34 43  1  0
 43 44  1  1
 44 45  1  0
 45 46  1  0
 45 47  1  0
 45 48  1  0
 48 49  1  0
 48 50  1  0
 48 51  1  0
 17 52  1  0
 52 53  1  0
 53 54  1  6
 54 55  1  0
 55 56  1  0
 55 57  1  0
 55 58  1  0
 58 59  1  0
 58 60  1  0
 58 61  1  0
  4 62  1  0
 62 63  1  0
 63 64  1  0
 63 65  1  0
 63 66  1  0
 66 67  1  0
 66 68  1  0
 66 69  1  0
 53 15  1  0
 43 19  1  0
M  END
$$$$
26
     RDKit          2D

 55 56  0  0  0  0  0  0  0  0999 V2000
   -4.2951  -12.7814    0.0000 C   0  0  0  0  0  0  0  0  0  0  0  0
   -3.0816  -11.8997    0.0000 C   0  0  0  0  0  0  0  0  0  0  0  0
   -1.8681  -11.0180    0.0000 C   0  0  0  0  0  0  0  0  0  0  0  0
   -0.6546  -10.1364    0.0000 C   0  0  0  0  0  0  0  0  0  0  0  0
    0.7158  -10.7465    0.0000 O   0  0  0  0  0  0  0  0  0  0  0  0
   -0.8113   -8.6446    0.0000 C   0  0  0  0  0  0  0  0  0  0  0  0
    0.4022   -7.7629    0.0000 C   0  0  0  0  0  0  0  0  0  0  0  0
    1.7725   -8.3730    0.0000 O   0  0  0  0  0  0  0  0  0  0  0  0
    0.2454   -6.2711    0.0000 C   0  0  0  0  0  0  0  0  0  0  0  0
    1.3601   -5.2674    0.0000 O   0  0  0  0  0  0  0  0  0  0  0  0
    0.7500   -3.8971    0.0000 C   0  0  0  0  0  0  0  0  0  0  0  0
    1.5000   -2.5981    0.0000 C   0  0  0  0  0  0  0  0  0  0  0  0
    0.7500   -1.2990    0.0000 C   0  0  0  0  0  0  0  0  0  0  0  0
    1.5000    0.0000    0.0000 O   0  0  0  0  0  0  0  0  0  0  0  0
    0.7500    1.2990    0.0000 C   0  0  0  0  0  0  0  0  0  0  0  0
    1.5000    2.5981    0.0000 C   0  0  0  0  0  0  0  0  0  0  0  0
    3.0000    2.5981    0.0000 C   0  0  0  0  0  0  0  0  0  0  0  0
    3.7500    1.2990    0.0000 C   0  0  0  0  0  0  0  0  0  0  0  0
    3.7500    3.8971    0.0000 C   0  0  0  0  0  0  0  0  0  0  0  0
    5.2500    3.8971    0.0000 C   0  0  0  0  0  0  0  0  0  0  0  0
    6.0000    2.5981    0.0000 O   0  0  0  0  0  0  0  0  0  0  0  0
    6.0000    5.1962    0.0000 O   0  0  0  0  0  0  0  0  0  0  0  0
    7.5000    5.1962    0.0000 C   0  0  0  0  0  0  0  0  0  0  0  0
    7.5000    6.6962    0.0000 C   0  0  0  0  0  0  0  0  0  0  0  0
    7.5000    3.6962    0.0000 C   0  0  0  0  0  0  0  0  0  0  0  0
    9.0000    5.1962    0.0000 C   0  0  0  0  0  0  0  0  0  0  0  0
   -0.7500    1.2990    0.0000 C   0  0  0  0  0  0  0  0  0  0  0  0
   -1.5000    0.0000    0.0000 C   0  0  0  0  0  0  0  0  0  0  0  0
   -3.0000    0.0000    0.0000 O   0  0  0  0  0  0  0  0  0  0  0  0
   -3.7500    1.2990    0.0000 Si  0  0  0  0  0  4  0  0  0  0  0  0
   -5.0490    0.5490    0.0000 C   0  0  0  0  0  0  0  0  0  0  0  0
   -2.4510    2.0490    0.0000 C   0  0  0  0  0  0  0  0  0  0  0  0
   -4.5000    2.5981    0.0000 C   0  0  0  0  0  0  0  0  0  0  0  0
   -3.2010    3.3481    0.0000 C   0  0  0  0  0  0  0  0  0  0  0  0
   -5.7990    1.8481    0.0000 C   0  0  0  0  0  0  0  0  0  0  0  0
   -5.2500    3.8971    0.0000 C   0  0  0  0  0  0  0  0  0  0  0  0
   -0.7500   -1.2990    0.0000 C   0  0  0  0  0  0  0  0  0  0  0  0
   -1.5000   -2.5981    0.0000 O   0  0  0  0  0  0  0  0  0  0  0  0
   -3.0000   -2.5981    0.0000 Si  0  0  0  0  0  4  0  0  0  0  0  0
   -3.0000   -4.0981    0.0000 C   0  0  0  0  0  0  0  0  0  0  0  0
   -3.0000   -1.0981    0.0000 C   0  0  0  0  0  0  0  0  0  0  0  0
   -4.5000   -2.5981    0.0000 C   0  0  0  0  0  0  0  0  0  0  0  0
   -4.5000   -4.0981    0.0000 C   0  0  0  0  0  0  0  0  0  0  0  0
   -4.5000   -1.0981    0.0000 C   0  0  0  0  0  0  0  0  0  0  0  0
   -6.0000   -2.5981    0.0000 C   0  0  0  0  0  0  0  0  0  0  0  0
   -0.7418   -4.0539    0.0000 C   0  0  0  0  0  0  0  0  0  0  0  0
   -1.0537   -5.5211    0.0000 C   0  0  0  0  0  0  0  0  0  0  0  0
   -2.4240   -6.1312    0.0000 O   0  0  0  0  0  0  0  0  0  0  0  0
   -2.5808   -7.6230    0.0000 Si  0  0  0  0  0  4  0  0  0  0  0  0
   -1.0890   -7.7798    0.0000 C   0  0  0  0  0  0  0  0  0  0  0  0
   -4.0725   -7.4662    0.0000 C   0  0  0  0  0  0  0  0  0  0  0  0
   -2.7376   -9.1148    0.0000 C   0  0  0  0  0  0  0  0  0  0  0  0
   -1.2458   -9.2716    0.0000 C   0  0  0  0  0  0  0  0  0  0  0  0
   -4.2293   -8.9580    0.0000 C   0  0  0  0  0  0  0  0  0  0  0  0
   -2.8943  -10.6066    0.0000 C   0  0  0  0  0  0  0  0  0  0  0  0
  1  2  1  0
  2  3  3  0
  3  4  1  0
  4  5  1  1
  4  6  1  0
  6  7  1  0
  7  8  1  6
  7  9  1  0
  9 10  1  6
 10 11  1  0
 11 12  1  6
 13 12  1  6
 13 14  1  0
 14 15  1  0
 15 16  1  6
 16 17  1  0
 17 18  1  0
 17 19  2  0
 19 20  1  0
 20 21  2  0
 20 22  1  0
 22 23  1  0
 23 24  1  0
 23 25  1  0
 23 26  1  0
 15 27  1  0
 27 28  1  0
 28 29  1  1
 29 30  1  0
 30 31  1  0
 30 32  1  0
 30 33  1  0
 33 34  1  0
 33 35  1  0
 33 36  1  0
 28 37  1  0
 37 38  1  1
 38 39  1  0
 39 40  1  0
 39 41  1  0
 39 42  1  0
 42 43  1  0
 42 44  1  0
 42 45  1  0
 11 46  1  0
 46 47  1  0
 47 48  1  6
 48 49  1  0
 49 50  1  0
 49 51  1  0
 49 52  1  0
 52 53  1  0
 52 54  1  0
 52 55  1  0
 47  9  1  0
 37 13  1  0
M  END
$$$$
46-epi-26
     RDKit          2D

 55 56  0  0  0  0  0  0  0  0999 V2000
   -4.2951  -12.7814    0.0000 C   0  0  0  0  0  0  0  0  0  0  0  0
   -3.0816  -11.8997    0.0000 C   0  0  0  0  0  0  0  0  0  0  0  0
   -1.8681  -11.0180    0.0000 C   0  0  0  0  0  0  0  0  0  0  0  0
   -0.6546  -10.1364    0.0000 C   0  0  0  0  0  0  0  0  0  0  0  0
    0.7158  -10.7465    0.0000 O   0  0  0  0  0  0  0  0  0  0  0  0
   -0.8113   -8.6446    0.0000 C   0  0  0  0  0  0  0  0  0  0  0  0
    0.4022   -7.7629    0.0000 C   0  0  0  0  0  0  0  0  0  0  0  0
    1.7725   -8.3730    0.0000 O   0  0  0  0  0  0  0  0  0  0  0  0
    0.2454   -6.2711    0.0000 C   0  0  0  0  0  0  0  0  0  0  0  0
    1.3601   -5.2674    0.0000 O   0  0  0  0  0  0  0  0  0  0  0  0
    0.7500   -3.8971    0.0000 C   0  0  0  0  0  0  0  0  0  0  0  0
    1.5000   -2.5981    0.0000 C   0  0  0  0  0  0  0  0  0  0  0  0
    0.7500   -1.2990    0.0000 C   0  0  0  0  0  0  0  0  0  0  0  0
    1.5000    0.0000    0.0000 O   0  0  0  0  0  0  0  0  0  0  0  0
    0.7500    1.2990    0.0000 C   0  0  0  0  0  0  0  0  0  0  0  0
    1.5000    2.5981    0.0000 C   0  0  0  0  0  0  0  0  0  0  0  0
    3.0000    2.5981    0.0000 C   0  0  0  0  0  0  0  0  0  0  0  0
    3.7500    1.2990    0.0000 C   0  0  0  0  0  0  0  0  0  0  0  0
    3.7500    3.8971    0.0000 C   0  0  0  0  0  0  0  0  0  0  0  0
    5.2500    3.8971    0.0000 C   0  0  0  0  0  0  0  0  0  0  0  0
    6.0000    2.5981    0.0000 O   0  0  0  0  0  0  0  0  0  0  0  0
    6.0000    5.1962    0.0000 O   0  0  0  0  0  0  0  0  0  0  0  0
    7.5000    5.1962    0.0000 C   0  0  0  0  0  0  0  0  0  0  0  0
    7.5000    6.6962    0.0000 C   0  0  0  0  0  0  0  0  0  0  0  0
    7.5000    3.6962    0.0000 C   0  0  0  0  0  0  0  0  0  0  0  0
    9.0000    5.1962    0.0000 C   0  0  0  0  0  0  0  0  0  0  0  0
   -0.7500    1.2990    0.0000 C   0  0  0  0  0  0  0  0  0  0  0  0
   -1.5000    0.0000    0.0000 C   0  0  0  0  0  0  0  0  0  0  0  0
   -3.0000    0.0000    0.0000 O   0  0  0  0  0  0  0  0  0  0  0  0
   -3.7500    1.2990    0.0000 Si  0  0  0  0  0  4  0  0  0  0  0  0
   -5.0490    0.5490    0.0000 C   0  0  0  0  0  0  0  0  0  0  0  0
   -2.4510    2.0490    0.0000 C   0  0  0  0  0  0  0  0  0  0  0  0
   -4.5000    2.5981    0.0000 C   0  0  0  0  0  0  0  0  0  0  0  0
   -3.2010    3.3481    0.0000 C   0  0  0  0  0  0  0  0  0  0  0  0
   -5.7990    1.8481    0.0000 C   0  0  0  0  0  0  0  0  0  0  0  0
   -5.2500    3.8971    0.0000 C   0  0  0  0  0  0  0  0  0  0  0  0
   -0.7500   -1.2990    0.0000 C   0  0  0  0  0  0  0  0  0  0  0  0
   -1.5000   -2.5981    0.0000 O   0  0  0  0  0  0  0  0  0  0  0  0
   -3.0000   -2.5981    0.0000 Si  0  0  0  0  0  4  0  0  0  0  0  0
   -3.0000   -4.0981    0.0000 C   0  0  0  0  0  0  0  0  0  0  0  0
   -3.0000   -1.0981    0.0000 C   0  0  0  0  0  0  0  0  0  0  0  0
   -4.5000   -2.5981    0.0000 C   0  0  0  0  0  0  0  0  0  0  0  0
   -4.5000   -4.0981    0.0000 C   0  0  0  0  0  0  0  0  0  0  0  0
   -4.5000   -1.0981    0.0000 C   0  0  0  0  0  0  0  0  0  0  0  0
   -6.0000   -2.5981    0.0000 C   0  0  0  0  0  0  0  0  0  0  0  0
   -0.7418   -4.0539    0.0000 C   0  0  0  0  0  0  0  0  0  0  0  0
   -1.0537   -5.5211    0.0000 C   0  0  0  0  0  0  0  0  0  0  0  0
   -2.4240   -6.1312    0.0000 O   0  0  0  0  0  0  0  0  0  0  0  0
   -2.5808   -7.6230    0.0000 Si  0  0  0  0  0  4  0  0  0  0  0  0
   -1.0890   -7.7798    0.0000 C   0  0  0  0  0  0  0  0  0  0  0  0
   -4.0725   -7.4662    0.0000 C   0  0  0  0  0  0  0  0  0  0  0  0
   -2.7376   -9.1148    0.0000 C   0  0  0  0  0  0  0  0  0  0  0  0
   -1.2458   -9.2716    0.0000 C   0  0  0  0  0  0  0  0  0  0  0  0
   -4.2293   -8.9580    0.0000 C   0  0  0  0  0  0  0  0  0  0  0  0
   -2.8943  -10.6066    0.0000 C   0  0  0  0  0  0  0  0  0  0  0  0
  1  2  1  0
  2  3  3  0
  3  4  1  0
  4  5  1  6
  4  6  1  0
  6  7  1  0
  7  8  1  6
  7  9  1  0
  9 10  1  6
 10 11  1  0
 11 12  1  6
 13 12  1  6
 13 14  1  0
 14 15  1  0
 15 16  1  6
 16 17  1  0
 17 18  1  0
 17 19  2  0
 19 20  1  0
 20 21  2  0
 20 22  1  0
 22 23  1  0
 23 24  1  0
 23 25  1  0
 23 26  1  0
 15 27  1  0
 27 28  1  0
 28 29  1  1
 29 30  1  0
 30 31  1  0
 30 32  1  0
 30 33  1  0
 33 34  1  0
 33 35  1  0
 33 36  1  0
 28 37  1  0
 37 38  1  1
 38 39  1  0
 39 40  1  0
 39 41  1  0
 39 42  1  0
 42 43  1  0
 42 44  1  0
 42 45  1  0
 11 46  1  0
 46 47  1  0
 47 48  1  6
 48 49  1  0
 49 50  1  0
 49 51  1  0
 49 52  1  0
 52 53  1  0
 52 54  1  0
 52 55  1  0
 47  9  1  0
 37 13  1  0
M  END
$$$$
25
     RDKit          2D

 55 56  0  0  0  0  0  0  0  0999 V2000
   -4.2951  -12.7814    0.0000 C   0  0  0  0  0  0  0  0  0  0  0  0
   -3.0816  -11.8997    0.0000 C   0  0  0  0  0  0  0  0  0  0  0  0
   -1.8681  -11.0180    0.0000 C   0  0  0  0  0  0  0  0  0  0  0  0
   -0.6546  -10.1364    0.0000 C   0  0  0  0  0  0  0  0  0  0  0  0
    0.7158  -10.7465    0.0000 O   0  0  0  0  0  0  0  0  0  0  0  0
   -0.8113   -8.6446    0.0000 C   0  0  0  0  0  0  0  0  0  0  0  0
    0.4022   -7.7629    0.0000 C   0  0  0  0  0  0  0  0  0  0  0  0
    1.7725   -8.3730    0.0000 O   0  0  0  0  0  0  0  0  0  0  0  0
    0.2454   -6.2711    0.0000 C   0  0  0  0  0  0  0  0  0  0  0  0
    1.3601   -5.2674    0.0000 O   0  0  0  0  0  0  0  0  0  0  0  0
    0.7500   -3.8971    0.0000 C   0  0  0  0  0  0  0  0  0  0  0  0
    1.5000   -2.5981    0.0000 C   0  0  0  0  0  0  0  0  0  0  0  0
    0.7500   -1.2990    0.0000 C   0  0  0  0  0  0  0  0  0  0  0  0
    1.5000    0.0000    0.0000 O   0  0  0  0  0  0  0  0  0  0  0  0
    0.7500    1.2990    0.0000 C   0  0  0  0  0  0  0  0  0  0  0  0
    1.5000    2.5981    0.0000 C   0  0  0  0  0  0  0  0  0  0  0  0
    3.0000    2.5981    0.0000 C   0  0  0  0  0  0  0  0  0  0  0  0
    3.7500    1.2990    0.0000 C   0  0  0  0  0  0  0  0  0  0  0  0
    3.7500    3.8971    0.0000 C   0  0  0  0  0  0  0  0  0  0  0  0
    5.2500    3.8971    0.0000 C   0  0  0  0  0  0  0  0  0  0  0  0
    6.0000    2.5981    0.0000 O   0  0  0  0  0  0  0  0  0  0  0  0
    6.0000    5.1962    0.0000 O   0  0  0  0  0  0  0  0  0  0  0  0
    7.5000    5.1962    0.0000 C   0  0  0  0  0  0  0  0  0  0  0  0
    7.5000    6.6962    0.0000 C   0  0  0  0  0  0  0  0  0  0  0  0
    7.5000    3.6962    0.0000 C   0  0  0  0  0  0  0  0  0  0  0  0
    9.0000    5.1962    0.0000 C   0  0  0  0  0  0  0  0  0  0  0  0
   -0.7500    1.2990    0.0000 C   0  0  0  0  0  0  0  0  0  0  0  0
   -1.5000    0.0000    0.0000 C   0  0  0  0  0  0  0  0  0  0  0  0
   -3.0000    0.0000    0.0000 O   0  0  0  0  0  0  0  0  0  0  0  0
   -3.7500    1.2990    0.0000 Si  0  0  0  0  0  4  0  0  0  0  0  0
   -5.0490    0.5490    0.0000 C   0  0  0  0  0  0  0  0  0  0  0  0
   -2.4510    2.0490    0.0000 C   0  0  0  0  0  0  0  0  0  0  0  0
   -4.5000    2.5981    0.0000 C   0  0  0  0  0  0  0  0  0  0  0  0
   -3.2010    3.3481    0.0000 C   0  0  0  0  0  0  0  0  0  0  0  0
   -5.7990    1.8481    0.0000 C   0  0  0  0  0  0  0  0  0  0  0  0
   -5.2500    3.8971    0.0000 C   0  0  0  0  0  0  0  0  0  0  0  0
   -0.7500   -1.2990    0.0000 C   0  0  0  0  0  0  0  0  0  0  0  0
   -1.5000   -2.5981    0.0000 O   0  0  0  0  0  0  0  0  0  0  0  0
   -3.0000   -2.5981    0.0000 Si  0  0  0  0  0  4  0  0  0  0  0  0
   -3.0000   -4.0981    0.0000 C   0  0  0  0  0  0  0  0  0  0  0  0
   -3.0000   -1.0981    0.0000 C   0  0  0  0  0  0  0  0  0  0  0  0
   -4.5000   -2.5981    0.0000 C   0  0  0  0  0  0  0  0  0  0  0  0
   -4.5000   -4.0981    0.0000 C   0  0  0  0  0  0  0  0  0  0  0  0
   -4.5000   -1.0981    0.0000 C   0  0  0  0  0  0  0  0  0  0  0  0
   -6.0000   -2.5981    0.0000 C   0  0  0  0  0  0  0  0  0  0  0  0
   -0.7418   -4.0539    0.0000 C   0  0  0  0  0  0  0  0  0  0  0  0
   -1.0537   -5.5211    0.0000 C   0  0  0  0  0  0  0  0  0  0  0  0
   -2.4240   -6.1312    0.0000 O   0  0  0  0  0  0  0  0  0  0  0  0
   -2.5808   -7.6230    0.0000 Si  0  0  0  0  0  4  0  0  0  0  0  0
   -1.0890   -7.7798    0.0000 C   0  0  0  0  0  0  0  0  0  0  0  0
   -4.0725   -7.4662    0.0000 C   0  0  0  0  0  0  0  0  0  0  0  0
   -2.7376   -9.1148    0.0000 C   0  0  0  0  0  0  0  0  0  0  0  0
   -1.2458   -9.2716    0.0000 C   0  0  0  0  0  0  0  0  0  0  0  0
   -4.2293   -8.9580    0.0000 C   0  0  0  0  0  0  0  0  0  0  0  0
   -2.8943  -10.6066    0.0000 C   0  0  0  0  0  0  0  0  0  0  0  0
  1  2  1  0
  2  3  3  0
  3  4  1  0
  4  5  2  0
  4  6  1  0
  6  7  1  0
  7  8  1  6
  7  9  1  0
  9 10  1  6
 10 11  1  0
 11 12  1  6
 13 12  1  6
 13 14  1  0
 14 15  1  0
 15 16  1  6
 16 17  1  0
 17 18  1  0
 17 19  2  0
 19 20  1  0
 20 21  2  0
 20 22  1  0
 22 23  1  0
 23 24  1  0
 23 25  1  0
 23 26  1  0
 15 27  1  0
 27 28  1  0
 28 29  1  1
 29 30  1  0
 30 31  1  0
 30 32  1  0
 30 33  1  0
 33 34  1  0
 33 35  1  0
 33 36  1  0
 28 37  1  0
 37 38  1  1
 38 39  1  0
 39 40  1  0
 39 41  1  0
 39 42  1  0
 42 43  1  0
 42 44  1  0
 42 45  1  0
 11 46  1  0
 46 47  1  0
 47 48  1  6
 48 49  1  0
 49 50  1  0
 49 51  1  0
 49 52  1  0
 52 53  1  0
 52 54  1  0
 52 55  1  0
 47  9  1  0
 37 13  1  0
M  END
$$$$
48-epi-25
     RDKit          2D

 55 56  0  0  0  0  0  0  0  0999 V2000
   -4.2951  -12.7814    0.0000 C   0  0  0  0  0  0  0  0  0  0  0  0
   -3.0816  -11.8997    0.0000 C   0  0  0  0  0  0  0  0  0  0  0  0
   -1.8681  -11.0180    0.0000 C   0  0  0  0  0  0  0  0  0  0  0  0
   -0.6546  -10.1364    0.0000 C   0  0  0  0  0  0  0  0  0  0  0  0
    0.7158  -10.7465    0.0000 O   0  0  0  0  0  0  0  0  0  0  0  0
   -0.8113   -8.6446    0.0000 C   0  0  0  0  0  0  0  0  0  0  0  0
    0.4022   -7.7629    0.0000 C   0  0  0  0  0  0  0  0  0  0  0  0
    1.7725   -8.3730    0.0000 O   0  0  0  0  0  0  0  0  0  0  0  0
    0.2454   -6.2711    0.0000 C   0  0  0  0  0  0  0  0  0  0  0  0
    1.3601   -5.2674    0.0000 O   0  0  0  0  0  0  0  0  0  0  0  0
    0.7500   -3.8971    0.0000 C   0  0  0  0  0  0  0  0  0  0  0  0
    1.5000   -2.5981    0.0000 C   0  0  0  0  0  0  0  0  0  0  0  0
    0.7500   -1.2990    0.0000 C   0  0  0  0  0  0  0  0  0  0  0  0
    1.5000    0.0000    0.0000 O   0  0  0  0  0  0  0  0  0  0  0  0
    0.7500    1.2990    0.0000 C   0  0  0  0  0  0  0  0  0  0  0  0
    1.5000    2.5981    0.0000 C   0  0  0  0  0  0  0  0  0  0  0  0
    3.0000    2.5981    0.0000 C   0  0  0  0  0  0  0  0  0  0  0  0
    3.7500    1.2990    0.0000 C   0  0  0  0  0  0  0  0  0  0  0  0
    3.7500    3.8971    0.0000 C   0  0  0  0  0  0  0  0  0  0  0  0
    5.2500    3.8971    0.0000 C   0  0  0  0  0  0  0  0  0  0  0  0
    6.0000    2.5981    0.0000 O   0  0  0  0  0  0  0  0  0  0  0  0
    6.0000    5.1962    0.0000 O   0  0  0  0  0  0  0  0  0  0  0  0
    7.5000    5.1962    0.0000 C   0  0  0  0  0  0  0  0  0  0  0  0
    7.5000    6.6962    0.0000 C   0  0  0  0  0  0  0  0  0  0  0  0
    7.5000    3.6962    0.0000 C   0  0  0  0  0  0  0  0  0  0  0  0
    9.0000    5.1962    0.0000 C   0  0  0  0  0  0  0  0  0  0  0  0
   -0.7500    1.2990    0.0000 C   0  0  0  0  0  0  0  0  0  0  0  0
   -1.5000    0.0000    0.0000 C   0  0  0  0  0  0  0  0  0  0  0  0
   -3.0000    0.0000    0.0000 O   0  0  0  0  0  0  0  0  0  0  0  0
   -3.7500    1.2990    0.0000 Si  0  0  0  0  0  4  0  0  0  0  0  0
   -5.0490    0.5490    0.0000 C   0  0  0  0  0  0  0  0  0  0  0  0
   -2.4510    2.0490    0.0000 C   0  0  0  0  0  0  0  0  0  0  0  0
   -4.5000    2.5981    0.0000 C   0  0  0  0  0  0  0  0  0  0  0  0
   -3.2010    3.3481    0.0000 C   0  0  0  0  0  0  0  0  0  0  0  0
   -5.7990    1.8481    0.0000 C   0  0  0  0  0  0  0  0  0  0  0  0
   -5.2500    3.8971    0.0000 C   0  0  0  0  0  0  0  0  0  0  0  0
   -0.7500   -1.2990    0.0000 C   0  0  0  0  0  0  0  0  0  0  0  0
   -1.5000   -2.5981    0.0000 O   0  0  0  0  0  0  0  0  0  0  0  0
   -3.0000   -2.5981    0.0000 Si  0  0  0  0  0  4  0  0  0  0  0  0
   -3.0000   -4.0981    0.0000 C   0  0  0  0  0  0  0  0  0  0  0  0
   -3.0000   -1.0981    0.0000 C   0  0  0  0  0  0  0  0  0  0  0  0
   -4.5000   -2.5981    0.0000 C   0  0  0  0  0  0  0  0  0  0  0  0
   -4.5000   -4.0981    0.0000 C   0  0  0  0  0  0  0  0  0  0  0  0
   -4.5000   -1.0981    0.0000 C   0  0  0  0  0  0  0  0  0  0  0  0
   -6.0000   -2.5981    0.0000 C   0  0  0  0  0  0  0  0  0  0  0  0
   -0.7418   -4.0539    0.0000 C   0  0  0  0  0  0  0  0  0  0  0  0
   -1.0537   -5.5211    0.0000 C   0  0  0  0  0  0  0  0  0  0  0  0
   -2.4240   -6.1312    0.0000 O   0  0  0  0  0  0  0  0  0  0  0  0
   -2.5808   -7.6230    0.0000 Si  0  0  0  0  0  4  0  0  0  0  0  0
   -1.0890   -7.7798    0.0000 C   0  0  0  0  0  0  0  0  0  0  0  0
   -4.0725   -7.4662    0.0000 C   0  0  0  0  0  0  0  0  0  0  0  0
   -2.7376   -9.1148    0.0000 C   0  0  0  0  0  0  0  0  0  0  0  0
   -1.2458   -9.2716    0.0000 C   0  0  0  0  0  0  0  0  0  0  0  0
   -4.2293   -8.9580    0.0000 C   0  0  0  0  0  0  0  0  0  0  0  0
   -2.8943  -10.6066    0.0000 C   0  0  0  0  0  0  0  0  0  0  0  0
  1  2  1  0
  2  3  3  0
  3  4  1  0
  4  5  2  0
  4  6  1  0
  6  7  1  0
  7  8  1  1
  7  9  1  0
  9 10  1  6
 10 11  1  0
 11 12  1  6
 13 12  1  6
 13 14  1  0
 14 15  1  0
 15 16  1  6
 16 17  1  0
 17 18  1  0
 17 19  2  0
 19 20  1  0
 20 21  2  0
 20 22  1  0
 22 23  1  0
 23 24  1  0
 23 25  1  0
 23 26  1  0
 15 27  1  0
 27 28  1  0
 28 29  1  1
 29 30  1  0
 30 31  1  0
 30 32  1  0
 30 33  1  0
 33 34  1  0
 33 35  1  0
 33 36  1  0
 28 37  1  0
 37 38  1  1
 38 39  1  0
 39 40  1  0
 39 41  1  0
 39 42  1  0
 42 43  1  0
 42 44  1  0
 42 45  1  0
 11 46  1  0
 46 47  1  0
 47 48  1  6
 48 49  1  0
 49 50  1  0
 49 51  1  0
 49 52  1  0
 52 53  1  0
 52 54  1  0
 52 55  1  0
 47  9  1  0
 37 13  1  0
M  END
$$$$
23
     RDKit          2D

 49 50  0  0  0  0  0  0  0  0999 V2000
    3.0000   -2.5981    0.0000 C   0  0  0  0  0  0  0  0  0  0  0  0
    3.7500   -1.2990    0.0000 C   0  0  0  0  0  0  0  0  0  0  0  0
    5.2500   -1.2990    0.0000 C   0  0  0  0  0  0  0  0  0  0  0  0
    6.0000   -2.5981    0.0000 C   0  0  0  0  0  0  0  0  0  0  0  0
    5.2500   -3.8971    0.0000 O   0  0  0  0  0  0  0  0  0  0  0  0
    7.5000   -2.5981    0.0000 O   0  0  0  0  0  0  0  0  0  0  0  0
    8.2500   -3.8971    0.0000 C   0  0  0  0  0  0  0  0  0  0  0  0
    9.5490   -3.1471    0.0000 C   0  0  0  0  0  0  0  0  0  0  0  0
    6.9510   -4.6471    0.0000 C   0  0  0  0  0  0  0  0  0  0  0  0
    9.0000   -5.1962    0.0000 C   0  0  0  0  0  0  0  0  0  0  0  0
    3.0000    0.0000    0.0000 C   0  0  0  0  0  0  0  0  0  0  0  0
    1.5000    0.0000    0.0000 C   0  0  0  0  0  0  0  0  0  0  0  0
    0.7500   -1.2990    0.0000 C   0  0  0  0  0  0  0  0  0  0  0  0
   -0.7500   -1.2990    0.0000 C   0  0  0  0  0  0  0  0  0  0  0  0
   -1.5000   -2.5981    0.0000 O   0  0  0  0  0  0  0  0  0  0  0  0
   -3.0000   -2.5981    0.0000 Si  0  0  0  0  0  4  0  0  0  0  0  0
   -3.0000   -4.0981    0.0000 C   0  0  0  0  0  0  0  0  0  0  0  0
   -3.0000   -1.0981    0.0000 C   0  0  0  0  0  0  0  0  0  0  0  0
   -4.5000   -2.5981    0.0000 C   0  0  0  0  0  0  0  0  0  0  0  0
   -4.5000   -1.0981    0.0000 C   0  0  0  0  0  0  0  0  0  0  0  0
   -4.5000   -4.0981    0.0000 C   0  0  0  0  0  0  0  0  0  0  0  0
   -6.0000   -2.5981    0.0000 C   0  0  0  0  0  0  0  0  0  0  0  0
   -1.5000    0.0000    0.0000 C   0  0  0  0  0  0  0  0  0  0  0  0
   -3.0000    0.0000    0.0000 O   0  0  0  0  0  0  0  0  0  0  0  0
   -3.7500    1.2990    0.0000 Si  0  0  0  0  0  4  0  0  0  0  0  0
   -5.0490    0.5490    0.0000 C   0  0  0  0  0  0  0  0  0  0  0  0
   -2.4510    2.0490    0.0000 C   0  0  0  0  0  0  0  0  0  0  0  0
   -4.5000    2.5981    0.0000 C   0  0  0  0  0  0  0  0  0  0  0  0
   -3.2010    3.3481    0.0000 C   0  0  0  0  0  0  0  0  0  0  0  0
   -5.7990    1.8481    0.0000 C   0  0  0  0  0  0  0  0  0  0  0  0
   -5.2500    3.8971    0.0000 C   0  0  0  0  0  0  0  0  0  0  0  0
   -0.7500    1.2990    0.0000 C   0  0  0  0  0  0  0  0  0  0  0  0
   -1.5000    2.5981    0.0000 C   0  0  0  0  0  0  0  0  0  0  0  0
   -0.7500    3.8971    0.0000 C   0  0  0  0  0  0  0  0  0  0  0  0
   -1.3601    5.2674    0.0000 C   0  0  0  0  0  0  0  0  0  0  0  0
   -0.2454    6.2711    0.0000 C   0  0  0  0  0  0  0  0  0  0  0  0
   -0.4022    7.7629    0.0000 O   0  0  0  0  0  0  0  0  0  0  0  0
    0.8113    8.6446    0.0000 Si  0  0  0  0  0  4  0  0  0  0  0  0
   -0.0703    9.8581    0.0000 C   0  0  0  0  0  0  0  0  0  0  0  0
    1.6930    7.4311    0.0000 C   0  0  0  0  0  0  0  0  0  0  0  0
    2.0249    9.5263    0.0000 C   0  0  0  0  0  0  0  0  0  0  0  0
    2.9065    8.3127    0.0000 C   0  0  0  0  0  0  0  0  0  0  0  0
    1.1432   10.7398    0.0000 C   0  0  0  0  0  0  0  0  0  0  0  0
    3.2384   10.4079    0.0000 C   0  0  0  0  0  0  0  0  0  0  0  0
    1.0537    5.5211    0.0000 C   0  0  0  0  0  0  0  0  0  0  0  0
    2.4240    6.1312    0.0000 C   0  0  0  0  0  0  0  0  0  0  0  0
    3.6375    5.2496    0.0000 O   0  0  0  0  0  0  0  0  0  0  0  0
    0.7418    4.0539    0.0000 O   0  0  0  0  0  0  0  0  0  0  0  0
    0.7500    1.2990    0.0000 O   0  0  0  0  0  0  0  0  0  0  0  0
  1  2  1  0
  2  3  2  0
  3  4  1  0
  4  5  2  0
  4  6  1  0
  6  7  1  0
  7  8  1  0
  7  9  1  0
  7 10  1  0
  2 11  1  0
 12 11  1  1
 12 13  1  0
 13 14  1  0
 14 15  1  6
 15 16  1  0
 16 17  1  0
 16 18  1  0
 16 19  1  0
 19 20  1  0
 19 21  1  0
 19 22  1  0
 14 23  1  0
 23 24  1  6
 24 25  1  0
 25 26  1  0
 25 27  1  0
 25 28  1  0
 28 29  1  0
 28 30  1  0
 28 31  1  0
 23 32  1  0
 32 33  1  1
 34 33  1  1
 34 35  1  0
 35 36  1  0
 36 37  1  1
 37 38  1  0
 38 39  1  0
 38 40  1  0
 38 41  1  0
 41 42  1  0
 41 43  1  0
 41 44  1  0
 36 45  1  0
 45 46  1  1
 46 47  2  0
 45 48  1  0
 32 49  1  0
 49 12  1  0
 48 34  1  0
M  END
$$$$
S8-E
     RDKit          2D

 51 52  0  0  0  0  0  0  0  0999 V2000
    1.9293   -9.8648    0.0000 C   0  0  0  0  0  0  0  0  0  0  0  0
    1.7725   -8.3730    0.0000 O   0  0  0  0  0  0  0  0  0  0  0  0
    0.4022   -7.7629    0.0000 C   0  0  0  0  0  0  0  0  0  0  0  0
   -0.6948   -8.7859    0.0000 O   0  0  0  0  0  0  0  0  0  0  0  0
    0.2454   -6.2711    0.0000 C   0  0  0  0  0  0  0  0  0  0  0  0
    1.3601   -5.2674    0.0000 O   0  0  0  0  0  0  0  0  0  0  0  0
    0.7500   -3.8971    0.0000 C   0  0  0  0  0  0  0  0  0  0  0  0
    1.5000   -2.5981    0.0000 C   0  0  0  0  0  0  0  0  0  0  0  0
    0.7500   -1.2990    0.0000 C   0  0  0  0  0  0  0  0  0  0  0  0
    1.5000    0.0000    0.0000 O   0  0  0  0  0  0  0  0  0  0  0  0
    0.7500    1.2990    0.0000 C   0  0  0  0  0  0  0  0  0  0  0  0
    1.5000    2.5981    0.0000 C   0  0  0  0  0  0  0  0  0  0  0  0
    3.0000    2.5981    0.0000 C   0  0  0  0  0  0  0  0  0  0  0  0
    3.7500    1.2990    0.0000 C   0  0  0  0  0  0  0  0  0  0  0  0
    3.7500    3.8971    0.0000 C   0  0  0  0  0  0  0  0  0  0  0  0
    5.2500    3.8971    0.0000 C   0  0  0  0  0  0  0  0  0  0  0  0
    6.0000    2.5981    0.0000 O   0  0  0  0  0  0  0  0  0  0  0  0
    6.0000    5.1962    0.0000 O   0  0  0  0  0  0  0  0  0  0  0  0
    7.5000    5.1962    0.0000 C   0  0  0  0  0  0  0  0  0  0  0  0
    7.5000    6.6962    0.0000 C   0  0  0  0  0  0  0  0  0  0  0  0
    7.5000    3.6962    0.0000 C   0  0  0  0  0  0  0  0  0  0  0  0
    9.0000    5.1962    0.0000 C   0  0  0  0  0  0  0  0  0  0  0  0
   -0.7500    1.2990    0.0000 C   0  0  0  0  0  0  0  0  0  0  0  0
   -1.5000    0.0000    0.0000 C   0  0  0  0  0  0  0  0  0  0  0  0
   -3.0000    0.0000    0.0000 O   0  0  0  0  0  0  0  0  0  0  0  0
   -3.7500    1.2990    0.0000 Si  0  0  0  0  0  4  0  0  0  0  0  0
   -5.0490    0.5490    0.0000 C   0  0  0  0  0  0  0  0  0  0  0  0
   -2.4510    2.0490    0.0000 C   0  0  0  0  0  0  0  0  0  0  0  0
   -4.5000    2.5981    0.0000 C   0  0  0  0  0  0  0  0  0  0  0  0
   -3.2010    3.3481    0.0000 C   0  0  0  0  0  0  0  0  0  0  0  0
   -5.7990    1.8481    0.0000 C   0  0  0  0  0  0  0  0  0  0  0  0
   -5.2500    3.8971    0.0000 C   0  0  0  0  0  0  0  0  0  0  0  0
   -0.7500   -1.2990    0.0000 C   0  0  0  0  0  0  0  0  0  0  0  0
   -1.5000   -2.5981    0.0000 O   0  0  0  0  0  0  0  0  0  0  0  0
   -3.0000   -2.5981    0.0000 Si  0  0  0  0  0  4  0  0  0  0  0  0
   -3.0000   -4.0981    0.0000 C   0  0  0  0  0  0  0  0  0  0  0  0
   -3.0000   -1.0981    0.0000 C   0  0  0  0  0  0  0  0  0  0  0  0
   -4.5000   -2.5981    0.0000 C   0  0  0  0  0  0  0  0  0  0  0  0
   -4.5000   -4.0981    0.0000 C   0  0  0  0  0  0  0  0  0  0  0  0
   -4.5000   -1.0981    0.0000 C   0  0  0  0  0  0  0  0  0  0  0  0
   -6.0000   -2.5981    0.0000 C   0  0  0  0  0  0  0  0  0  0  0  0
   -0.7418   -4.0539    0.0000 C   0  0  0  0  0  0  0  0  0  0  0  0
   -1.0537   -5.5211    0.0000 C   0  0  0  0  0  0  0  0  0  0  0  0
   -2.4240   -6.1312    0.0000 O   0  0  0  0  0  0  0  0  0  0  0  0
   -2.5808   -7.6230    0.0000 Si  0  0  0  0  0  4  0  0  0  0  0  0
   -4.0725   -7.4662    0.0000 C   0  0  0  0  0  0  0  0  0  0  0  0
   -1.0890   -7.7798    0.0000 C   0  0  0  0  0  0  0  0  0  0  0  0
   -2.7376   -9.1148    0.0000 C   0  0  0  0  0  0  0  0  0  0  0  0
   -4.2293   -8.9580    0.0000 C   0  0  0  0  0  0  0  0  0  0  0  0
   -1.2760   -9.4523    0.0000 C   0  0  0  0  0  0  0  0  0  0  0  0
   -2.8943  -10.6066    0.0000 C   0  0  0  0  0  0  0  0  0  0  0  0
  1  2  1  0
  2  3  1  0
  3  4  2  0
  5  3  1  6
  5  6  1  0
  6  7  1  0
  7  8  1  6
  9  8  1  6
  9 10  1  0
 10 11  1  0
 11 12  1  6
 12 13  1  0
 13 14  1  0
 13 15  2  0
 15 16  1  0
 16 17  2  0
 16 18  1  0
 18 19  1  0
 19 20  1  0
 19 21  1  0
 19 22  1  0
 11 23  1  0
 23 24  1  0
 24 25  1  1
 25 26  1  0
 26 27  1  0
 26 28  1  0
 26 29  1  0
 29 30  1  0
 29 31  1  0
 29 32  1  0
 24 33  1  0
 33 34  1  1
 34 35  1  0
 35 36  1  0
 35 37  1  0
 35 38  1  0
 38 39  1  0
 38 40  1  0
 38 41  1  0
  7 42  1  0
 42 43  1  0
 43 44  1  6
 44 45  1  0
 45 46  1  0
 45 47  1  0
 45 48  1  0
 48 49  1  0
 48 50  1  0
 48 51  1  0
 43  5  1  0
 33  9  1  0
M  END
$$$$
S8-Z
     RDKit          2D

 51 52  0  0  0  0  0  0  0  0999 V2000
    1.9293   -9.8648    0.0000 C   0  0  0  0  0  0  0  0  0  0  0  0
    1.7725   -8.3730    0.0000 O   0  0  0  0  0  0  0  0  0  0  0  0
    0.4022   -7.7629    0.0000 C   0  0  0  0  0  0  0  0  0  0  0  0
   -0.6948   -8.7859    0.0000 O   0  0  0  0  0  0  0  0  0  0  0  0
    0.2454   -6.2711    0.0000 C   0  0  0  0  0  0  0  0  0  0  0  0
    1.3601   -5.2674    0.0000 O   0  0  0  0  0  0  0  0  0  0  0  0
    0.7500   -3.8971    0.0000 C   0  0  0  0  0  0  0  0  0  0  0  0
    1.5000   -2.5981    0.0000 C   0  0  0  0  0  0  0  0  0  0  0  0
    0.7500   -1.2990    0.0000 C   0  0  0  0  0  0  0  0  0  0  0  0
    1.5000    0.0000    0.0000 O   0  0  0  0  0  0  0  0  0  0  0  0
    0.7500    1.2990    0.0000 C   0  0  0  0  0  0  0  0  0  0  0  0
    1.5000    2.5981    0.0000 C   0  0  0  0  0  0  0  0  0  0  0  0
    3.0000    2.5981    0.0000 C   0  0  0  0  0  0  0  0  0  0  0  0
    3.7500    1.2990    0.0000 C   0  0  0  0  0  0  0  0  0  0  0  0
    3.7500    3.8971    0.0000 C   0  0  0  0  0  0  0  0  0  0  0  0
    3.0000    5.1962    0.0000 C   0  0  0  0  0  0  0  0  0  0  0  0
    1.5000    5.1962    0.0000 O   0  0  0  0  0  0  0  0  0  0  0  0
    3.7500    6.4952    0.0000 O   0  0  0  0  0  0  0  0  0  0  0  0
    3.0000    7.7942    0.0000 C   0  0  0  0  0  0  0  0  0  0  0  0
    4.2990    8.5442    0.0000 C   0  0  0  0  0  0  0  0  0  0  0  0
    1.7010    7.0442    0.0000 C   0  0  0  0  0  0  0  0  0  0  0  0
    2.2500    9.0933    0.0000 C   0  0  0  0  0  0  0  0  0  0  0  0
   -0.7500    1.2990    0.0000 C   0  0  0  0  0  0  0  0  0  0  0  0
   -1.5000    0.0000    0.0000 C   0  0  0  0  0  0  0  0  0  0  0  0
   -3.0000    0.0000    0.0000 O   0  0  0  0  0  0  0  0  0  0  0  0
   -3.7500    1.2990    0.0000 Si  0  0  0  0  0  4  0  0  0  0  0  0
   -5.0490    0.5490    0.0000 C   0  0  0  0  0  0  0  0  0  0  0  0
   -2.4510    2.0490    0.0000 C   0  0  0  0  0  0  0  0  0  0  0  0
   -4.5000    2.5981    0.0000 C   0  0  0  0  0  0  0  0  0  0  0  0
   -3.2010    3.3481    0.0000 C   0  0  0  0  0  0  0  0  0  0  0  0
   -5.7990    1.8481    0.0000 C   0  0  0  0  0  0  0  0  0  0  0  0
   -5.2500    3.8971    0.0000 C   0  0  0  0  0  0  0  0  0  0  0  0
   -0.7500   -1.2990    0.0000 C   0  0  0  0  0  0  0  0  0  0  0  0
   -1.5000   -2.5981    0.0000 O   0  0  0  0  0  0  0  0  0  0  0  0
   -3.0000   -2.5981    0.0000 Si  0  0  0  0  0  4  0  0  0  0  0  0
   -3.0000   -4.0981    0.0000 C   0  0  0  0  0  0  0  0  0  0  0  0
   -3.0000   -1.0981    0.0000 C   0  0  0  0  0  0  0  0  0  0  0  0
   -4.5000   -2.5981    0.0000 C   0  0  0  0  0  0  0  0  0  0  0  0
   -4.5000   -4.0981    0.0000 C   0  0  0  0  0  0  0  0  0  0  0  0
   -4.5000   -1.0981    0.0000 C   0  0  0  0  0  0  0  0  0  0  0  0
   -6.0000   -2.5981    0.0000 C   0  0  0  0  0  0  0  0  0  0  0  0
   -0.7418   -4.0539    0.0000 C   0  0  0  0  0  0  0  0  0  0  0  0
   -1.0537   -5.5211    0.0000 C   0  0  0  0  0  0  0  0  0  0  0  0
   -2.4240   -6.1312    0.0000 O   0  0  0  0  0  0  0  0  0  0  0  0
   -2.5808   -7.6230    0.0000 Si  0  0  0  0  0  4  0  0  0  0  0  0
   -4.0725   -7.4662    0.0000 C   0  0  0  0  0  0  0  0  0  0  0  0
   -1.0890   -7.7798    0.0000 C   0  0  0  0  0  0  0  0  0  0  0  0
   -2.7376   -9.1148    0.0000 C   0  0  0  0  0  0  0  0  0  0  0  0
   -1.2760   -9.4523    0.0000 C   0  0  0  0  0  0  0  0  0  0  0  0
   -4.2293   -8.9580    0.0000 C   0  0  0  0  0  0  0  0  0  0  0  0
   -2.8943  -10.6066    0.0000 C   0  0  0  0  0  0  0  0  0  0  0  0
  1  2  1  0
  2  3  1  0
  3  4  2  0
  5  3  1  6
  5  6  1  0
  6  7  1  0
  7  8  1  6
  9  8  1  6
  9 10  1  0
 10 11  1  0
 11 12  1  6
 12 13  1  0
 13 14  1  0
 13 15  2  0
 15 16  1  0
 16 17  2  0
 16 18  1  0
 18 19  1  0
 19 20  1  0
 19 21  1  0
 19 22  1  0
 11 23  1  0
 23 24  1  0
 24 25  1  1
 25 26  1  0
 26 27  1  0
 26 28  1  0
 26 29  1  0
 29 30  1  0
 29 31  1  0
 29 32  1  0
 24 33  1  0
 33 34  1  1
 34 35  1  0
 35 36  1  0
 35 37  1  0
 35 38  1  0
 38 39  1  0
 38 40  1  0
 38 41  1  0
  7 42  1  0
 42 43  1  0
 43 44  1  6
 44 45  1  0
 45 46  1  0
 45 47  1  0
 45 48  1  0
 48 49  1  0
 48 50  1  0
 48 51  1  0
 43  5  1  0
 33  9  1  0
M  END
$$$$
S7
     RDKit          2D

 30 31  0  0  0  0  0  0  0  0999 V2000
    9.1056   -0.6948    0.0000 C   0  0  0  0  0  0  0  0  0  0  0  0
    7.8921   -1.5765    0.0000 O   0  0  0  0  0  0  0  0  0  0  0  0
    6.5218   -0.9664    0.0000 C   0  0  0  0  0  0  0  0  0  0  0  0
    6.3650    0.5254    0.0000 O   0  0  0  0  0  0  0  0  0  0  0  0
    5.3083   -1.8481    0.0000 C   0  0  0  0  0  0  0  0  0  0  0  0
    3.8817   -1.3846    0.0000 O   0  0  0  0  0  0  0  0  0  0  0  0
    3.0000   -2.5981    0.0000 C   0  0  0  0  0  0  0  0  0  0  0  0
    1.5000   -2.5981    0.0000 C   0  0  0  0  0  0  0  0  0  0  0  0
    0.7500   -1.2990    0.0000 C   0  0  0  0  0  0  0  0  0  0  0  0
    1.5000    0.0000    0.0000 O   0  0  0  0  0  0  0  0  0  0  0  0
    0.7500    1.2990    0.0000 C   0  0  0  0  0  0  0  0  0  0  0  0
    1.5000    2.5981    0.0000 C   0  0  0  0  0  0  0  0  0  0  0  0
    3.0000    2.5981    0.0000 C   0  0  0  0  0  0  0  0  0  0  0  0
    3.7500    3.8971    0.0000 C   0  0  0  0  0  0  0  0  0  0  0  0
    3.7500    1.2990    0.0000 O   0  0  0  0  0  0  0  0  0  0  0  0
   -0.7500    1.2990    0.0000 C   0  0  0  0  0  0  0  0  0  0  0  0
   -1.5000    0.0000    0.0000 C   0  0  0  0  0  0  0  0  0  0  0  0
   -3.0000    0.0000    0.0000 O   0  0  0  0  0  0  0  0  0  0  0  0
   -0.7500   -1.2990    0.0000 C   0  0  0  0  0  0  0  0  0  0  0  0
   -1.5000   -2.5981    0.0000 O   0  0  0  0  0  0  0  0  0  0  0  0
    3.8817   -3.8116    0.0000 C   0  0  0  0  0  0  0  0  0  0  0  0
    5.3083   -3.3481    0.0000 C   0  0  0  0  0  0  0  0  0  0  0  0
    6.5218   -4.2298    0.0000 O   0  0  0  0  0  0  0  0  0  0  0  0
    6.3650   -5.7215    0.0000 Si  0  0  0  0  0  4  0  0  0  0  0  0
    7.8568   -5.8783    0.0000 C   0  0  0  0  0  0  0  0  0  0  0  0
    4.8732   -5.5647    0.0000 C   0  0  0  0  0  0  0  0  0  0  0  0
    6.2082   -7.2133    0.0000 C   0  0  0  0  0  0  0  0  0  0  0  0
    4.7164   -7.0565    0.0000 C   0  0  0  0  0  0  0  0  0  0  0  0
    7.7000   -7.3701    0.0000 C   0  0  0  0  0  0  0  0  0  0  0  0
    6.0514   -8.7051    0.0000 C   0  0  0  0  0  0  0  0  0  0  0  0
  1  2  1  0
  2  3  1  0
  3  4  2  0
  5  3  1  6
  5  6  1  0
  6  7  1  0
  7  8  1  6
  9  8  1  6
  9 10  1  0
 10 11  1  0
 11 12  1  6
 12 13  1  0
 13 14  1  0
 13 15  2  0
 11 16  1  0
 16 17  1  0
 17 18  1  1
 17 19  1  0
 19 20  1  1
  7 21  1  0
 21 22  1  0
 22 23  1  6
 23 24  1  0
 24 25  1  0
 24 26  1  0
 24 27  1  0
 27 28  1  0
 27 29  1  0
 27 30  1  0
 22  5  1  0
 19  9  1  0
M  END
$$$$
22
     RDKit          2D

 44 45  0  0  0  0  0  0  0  0999 V2000
    1.9293   -9.8648    0.0000 C   0  0  0  0  0  0  0  0  0  0  0  0
    1.7725   -8.3730    0.0000 O   0  0  0  0  0  0  0  0  0  0  0  0
    0.4022   -7.7629    0.0000 C   0  0  0  0  0  0  0  0  0  0  0  0
   -0.6948   -8.7859    0.0000 O   0  0  0  0  0  0  0  0  0  0  0  0
    0.2454   -6.2711    0.0000 C   0  0  0  0  0  0  0  0  0  0  0  0
    1.3601   -5.2674    0.0000 O   0  0  0  0  0  0  0  0  0  0  0  0
    0.7500   -3.8971    0.0000 C   0  0  0  0  0  0  0  0  0  0  0  0
    1.5000   -2.5981    0.0000 C   0  0  0  0  0  0  0  0  0  0  0  0
    0.7500   -1.2990    0.0000 C   0  0  0  0  0  0  0  0  0  0  0  0
    1.5000    0.0000    0.0000 O   0  0  0  0  0  0  0  0  0  0  0  0
    0.7500    1.2990    0.0000 C   0  0  0  0  0  0  0  0  0  0  0  0
    1.5000    2.5981    0.0000 C   0  0  0  0  0  0  0  0  0  0  0  0
    3.0000    2.5981    0.0000 C   0  0  0  0  0  0  0  0  0  0  0  0
    3.7500    3.8971    0.0000 C   0  0  0  0  0  0  0  0  0  0  0  0
    3.7500    1.2990    0.0000 O   0  0  0  0  0  0  0  0  0  0  0  0
   -0.7500    1.2990    0.0000 C   0  0  0  0  0  0  0  0  0  0  0  0
   -1.5000    0.0000    0.0000 C   0  0  0  0  0  0  0  0  0  0  0  0
   -3.0000    0.0000    0.0000 O   0  0  0  0  0  0  0  0  0  0  0  0
   -3.7500    1.2990    0.0000 Si  0  0  0  0  0  4  0  0  0  0  0  0
   -5.0490    0.5490    0.0000 C   0  0  0  0  0  0  0  0  0  0  0  0
   -2.4510    2.0490    0.0000 C   0  0  0  0  0  0  0  0  0  0  0  0
   -4.5000    2.5981    0.0000 C   0  0  0  0  0  0  0  0  0  0  0  0
   -3.2010    3.3481    0.0000 C   0  0  0  0  0  0  0  0  0  0  0  0
   -5.7990    1.8481    0.0000 C   0  0  0  0  0  0  0  0  0  0  0  0
   -5.2500    3.8971    0.0000 C   0  0  0  0  0  0  0  0  0  0  0  0
   -0.7500   -1.2990    0.0000 C   0  0  0  0  0  0  0  0  0  0  0  0
   -1.5000   -2.5981    0.0000 O   0  0  0  0  0  0  0  0  0  0  0  0
   -3.0000   -2.5981    0.0000 Si  0  0  0  0  0  4  0  0  0  0  0  0
   -3.0000   -4.0981    0.0000 C   0  0  0  0  0  0  0  0  0  0  0  0
   -3.0000   -1.0981    0.0000 C   0  0  0  0  0  0  0  0  0  0  0  0
   -4.5000   -2.5981    0.0000 C   0  0  0  0  0  0  0  0  0  0  0  0
   -4.5000   -4.0981    0.0000 C   0  0  0  0  0  0  0  0  0  0  0  0
   -4.5000   -1.0981    0.0000 C   0  0  0  0  0  0  0  0  0  0  0  0
   -6.0000   -2.5981    0.0000 C   0  0  0  0  0  0  0  0  0  0  0  0
   -0.7418   -4.0539    0.0000 C   0  0  0  0  0  0  0  0  0  0  0  0
   -1.0537   -5.5211    0.0000 C   0  0  0  0  0  0  0  0  0  0  0  0
   -2.4240   -6.1312    0.0000 O   0  0  0  0  0  0  0  0  0  0  0  0
   -2.5808   -7.6230    0.0000 Si  0  0  0  0  0  4  0  0  0  0  0  0
   -1.0890   -7.7798    0.0000 C   0  0  0  0  0  0  0  0  0  0  0  0
   -4.0725   -7.4662    0.0000 C   0  0  0  0  0  0  0  0  0  0  0  0
   -2.7376   -9.1148    0.0000 C   0  0  0  0  0  0  0  0  0  0  0  0
   -4.2293   -8.9580    0.0000 C   0  0  0  0  0  0  0  0  0  0  0  0
   -1.2760   -9.4523    0.0000 C   0  0  0  0  0  0  0  0  0  0  0  0
   -2.8943  -10.6066    0.0000 C   0  0  0  0  0  0  0  0  0  0  0  0
  1  2  1  0
  2  3  1  0
  3  4  2  0
  5  3  1  6
  5  6  1  0
  6  7  1  0
  7  8  1  6
  9  8  1  6
  9 10  1  0
 10 11  1  0
 11 12  1  6
 12 13  1  0
 13 14  1  0
 13 15  2  0
 11 16  1  0
 16 17  1  0
 17 18  1  1
 18 19  1  0
 19 20  1  0
 19 21  1  0
 19 22  1  0
 22 23  1  0
 22 24  1  0
 22 25  1  0
 17 26  1  0
 26 27  1  1
 27 28  1  0
 28 29  1  0
 28 30  1  0
 28 31  1  0
 31 32  1  0
 31 33  1  0
 31 34  1  0
  7 35  1  0
 35 36  1  0
 36 37  1  6
 37 38  1  0
 38 39  1  0
 38 40  1  0
 38 41  1  0
 41 42  1  0
 41 43  1  0
 41 44  1  0
 36  5  1  0
 26  9  1  0
M  END
$$$$
20
     RDKit          2D

 28 29  0  0  0  0  0  0  0  0999 V2000
   -0.6546  -10.1364    0.0000 C   0  0  0  0  0  0  0  0  0  0  0  0
   -0.8113   -8.6446    0.0000 O   0  0  0  0  0  0  0  0  0  0  0  0
    0.4022   -7.7629    0.0000 C   0  0  0  0  0  0  0  0  0  0  0  0
    1.7725   -8.3730    0.0000 O   0  0  0  0  0  0  0  0  0  0  0  0
    0.2454   -6.2711    0.0000 C   0  0  0  0  0  0  0  0  0  0  0  0
    1.3601   -5.2674    0.0000 O   0  0  0  0  0  0  0  0  0  0  0  0
    0.7500   -3.8971    0.0000 C   0  0  0  0  0  0  0  0  0  0  0  0
    1.5000   -2.5981    0.0000 C   0  0  0  0  0  0  0  0  0  0  0  0
    0.7500   -1.2990    0.0000 C   0  0  0  0  0  0  0  0  0  0  0  0
    1.5000    0.0000    0.0000 C   0  0  0  0  0  0  0  0  0  0  0  0
    0.7500    1.2990    0.0000 C   0  0  0  0  0  0  0  0  0  0  0  0
   -0.7500    1.2990    0.0000 C   0  0  0  0  0  0  0  0  0  0  0  0
   -1.5000    0.0000    0.0000 C   0  0  0  0  0  0  0  0  0  0  0  0
   -3.0000    0.0000    0.0000 C   0  0  0  0  0  0  0  0  0  0  0  0
   -3.7500    1.2990    0.0000 C   0  0  0  0  0  0  0  0  0  0  0  0
   -5.2500    1.2990    0.0000 C   0  0  0  0  0  0  0  0  0  0  0  0
   -3.0000    2.5981    0.0000 O   0  0  0  0  0  0  0  0  0  0  0  0
   -0.7500   -1.2990    0.0000 O   0  0  0  0  0  0  0  0  0  0  0  0
   -0.7418   -4.0539    0.0000 C   0  0  0  0  0  0  0  0  0  0  0  0
   -1.0537   -5.5211    0.0000 C   0  0  0  0  0  0  0  0  0  0  0  0
   -2.4240   -6.1312    0.0000 O   0  0  0  0  0  0  0  0  0  0  0  0
   -3.6375   -5.2496    0.0000 Si  0  0  0  0  0  4  0  0  0  0  0  0
   -4.5192   -6.4631    0.0000 C   0  0  0  0  0  0  0  0  0  0  0  0
   -2.7558   -4.0360    0.0000 C   0  0  0  0  0  0  0  0  0  0  0  0
   -4.8510   -4.3679    0.0000 C   0  0  0  0  0  0  0  0  0  0  0  0
   -3.9693   -3.1544    0.0000 C   0  0  0  0  0  0  0  0  0  0  0  0
   -5.7327   -5.5814    0.0000 C   0  0  0  0  0  0  0  0  0  0  0  0
   -6.0645   -3.4862    0.0000 C   0  0  0  0  0  0  0  0  0  0  0  0
  1  2  1  0
  2  3  1  0
  3  4  2  0
  5  3  1  6
  5  6  1  0
  6  7  1  0
  7  8  1  6
  9  8  1  1
  9 10  1  0
 10 11  2  0
 11 12  1  0
 12 13  1  0
 13 14  1  1
 14 15  1  0
 15 16  1  0
 15 17  2  0
 13 18  1  0
  7 19  1  0
 19 20  1  0
 20 21  1  6
 21 22  1  0
 22 23  1  0
 22 24  1  0
 22 25  1  0
 25 26  1  0
 25 27  1  0
 25 28  1  0
 20  5  1  0
 18  9  1  0
M  END
$$$$
21
     RDKit          2D

 28 29  0  0  0  0  0  0  0  0999 V2000
   -0.6546  -10.1364    0.0000 C   0  0  0  0  0  0  0  0  0  0  0  0
   -0.8113   -8.6446    0.0000 O   0  0  0  0  0  0  0  0  0  0  0  0
    0.4022   -7.7629    0.0000 C   0  0  0  0  0  0  0  0  0  0  0  0
    1.7725   -8.3730    0.0000 O   0  0  0  0  0  0  0  0  0  0  0  0
    0.2454   -6.2711    0.0000 C   0  0  0  0  0  0  0  0  0  0  0  0
    1.3601   -5.2674    0.0000 O   0  0  0  0  0  0  0  0  0  0  0  0
    0.7500   -3.8971    0.0000 C   0  0  0  0  0  0  0  0  0  0  0  0
    1.5000   -2.5981    0.0000 C   0  0  0  0  0  0  0  0  0  0  0  0
    0.7500   -1.2990    0.0000 C   0  0  0  0  0  0  0  0  0  0  0  0
    1.5000    0.0000    0.0000 C   0  0  0  0  0  0  0  0  0  0  0  0
    0.7500    1.2990    0.0000 C   0  0  0  0  0  0  0  0  0  0  0  0
   -0.7500    1.2990    0.0000 C   0  0  0  0  0  0  0  0  0  0  0  0
   -1.5000    0.0000    0.0000 C   0  0  0  0  0  0  0  0  0  0  0  0
   -3.0000    0.0000    0.0000 C   0  0  0  0  0  0  0  0  0  0  0  0
   -3.7500    1.2990    0.0000 C   0  0  0  0  0  0  0  0  0  0  0  0
   -5.2500    1.2990    0.0000 C   0  0  0  0  0  0  0  0  0  0  0  0
   -3.0000    2.5981    0.0000 O   0  0  0  0  0  0  0  0  0  0  0  0
   -0.7500   -1.2990    0.0000 O   0  0  0  0  0  0  0  0  0  0  0  0
   -0.7418   -4.0539    0.0000 C   0  0  0  0  0  0  0  0  0  0  0  0
   -1.0537   -5.5211    0.0000 C   0  0  0  0  0  0  0  0  0  0  0  0
   -2.4240   -6.1312    0.0000 O   0  0  0  0  0  0  0  0  0  0  0  0
   -3.6375   -5.2496    0.0000 Si  0  0  0  0  0  4  0  0  0  0  0  0
   -4.5192   -6.4631    0.0000 C   0  0  0  0  0  0  0  0  0  0  0  0
   -2.7558   -4.0360    0.0000 C   0  0  0  0  0  0  0  0  0  0  0  0
   -4.8510   -4.3679    0.0000 C   0  0  0  0  0  0  0  0  0  0  0  0
   -3.9693   -3.1544    0.0000 C   0  0  0  0  0  0  0  0  0  0  0  0
   -5.7327   -5.5814    0.0000 C   0  0  0  0  0  0  0  0  0  0  0  0
   -6.0645   -3.4862    0.0000 C   0  0  0  0  0  0  0  0  0  0  0  0
  1  2  1  0
  2  3  1  0
  3  4  2  0
  5  3  1  6
  5  6  1  0
  6  7  1  0
  7  8  1  6
  9  8  1  6
  9 10  1  0
 10 11  2  0
 11 12  1  0
 12 13  1  0
 13 14  1  1
 14 15  1  0
 15 16  1  0
 15 17  2  0
 13 18  1  0
  7 19  1  0
 19 20  1  0
 20 21  1  6
 21 22  1  0
 22 23  1  0
 22 24  1  0
 22 25  1  0
 25 26  1  0
 25 27  1  0
 25 28  1  0
 20  5  1  0
 18  9  1  0
M  END
$$$$
S6
     RDKit          2D

 20 20  0  0  0  0  0  0  0  0999 V2000
    5.0260   -1.2990    0.0000 C   0  0  0  0  0  0  0  0  0  0  0  0
    3.5260   -1.2990    0.0000 O   0  0  0  0  0  0  0  0  0  0  0  0
    2.7760    0.0000    0.0000 C   0  0  0  0  0  0  0  0  0  0  0  0
    3.5260    1.2990    0.0000 O   0  0  0  0  0  0  0  0  0  0  0  0
    1.2760    0.0000    0.0000 C   0  0  0  0  0  0  0  0  0  0  0  0
    0.3943    1.2135    0.0000 O   0  0  0  0  0  0  0  0  0  0  0  0
   -1.0323    0.7500    0.0000 C   0  0  0  0  0  0  0  0  0  0  0  0
   -2.2458    1.6317    0.0000 C   0  0  0  0  0  0  0  0  0  0  0  0
   -2.0890    3.1235    0.0000 C   0  0  0  0  0  0  0  0  0  0  0  0
   -3.3025    4.0051    0.0000 O   0  0  0  0  0  0  0  0  0  0  0  0
   -1.0323   -0.7500    0.0000 C   0  0  0  0  0  0  0  0  0  0  0  0
    0.3943   -1.2135    0.0000 C   0  0  0  0  0  0  0  0  0  0  0  0
    0.8578   -2.6401    0.0000 O   0  0  0  0  0  0  0  0  0  0  0  0
   -0.1459   -3.7548    0.0000 Si  0  0  0  0  0  4  0  0  0  0  0  0
    0.9688   -4.7585    0.0000 C   0  0  0  0  0  0  0  0  0  0  0  0
   -1.2606   -2.7511    0.0000 C   0  0  0  0  0  0  0  0  0  0  0  0
   -1.1496   -4.8695    0.0000 C   0  0  0  0  0  0  0  0  0  0  0  0
   -2.2643   -3.8658    0.0000 C   0  0  0  0  0  0  0  0  0  0  0  0
   -0.0349   -5.8732    0.0000 C   0  0  0  0  0  0  0  0  0  0  0  0
   -2.1533   -5.9843    0.0000 C   0  0  0  0  0  0  0  0  0  0  0  0
  1  2  1  0
  2  3  1  0
  3  4  2  0
  5  3  1  6
  5  6  1  0
  6  7  1  0
  7  8  1  6
  8  9  1  0
  9 10  1  0
  7 11  1  0
 11 12  1  0
 12 13  1  6
 13 14  1  0
 14 15  1  0
 14 16  1  0
 14 17  1  0
 17 18  1  0
 17 19  1  0
 17 20  1  0
 12  5  1  0
M  END
$$$$
11
     RDKit          2D

 29 30  0  0  0  0  0  0  0  0999 V2000
    6.2011  -12.1302    0.0000 C   0  0  0  0  0  0  0  0  0  0  0  0
    4.8308  -11.5201    0.0000 O   0  0  0  0  0  0  0  0  0  0  0  0
    4.6740  -10.0283    0.0000 C   0  0  0  0  0  0  0  0  0  0  0  0
    5.8875   -9.1467    0.0000 O   0  0  0  0  0  0  0  0  0  0  0  0
    3.3037   -9.4182    0.0000 C   0  0  0  0  0  0  0  0  0  0  0  0
    2.9918   -7.9510    0.0000 O   0  0  0  0  0  0  0  0  0  0  0  0
    1.5000   -7.7942    0.0000 C   0  0  0  0  0  0  0  0  0  0  0  0
    0.7500   -6.4952    0.0000 C   0  0  0  0  0  0  0  0  0  0  0  0
    1.5000   -5.1962    0.0000 C   0  0  0  0  0  0  0  0  0  0  0  0
    0.7500   -3.8971    0.0000 O   0  0  0  0  0  0  0  0  0  0  0  0
    1.5000   -2.5981    0.0000 C   0  0  0  0  0  0  0  0  0  0  0  0
    0.7500   -1.2990    0.0000 C   0  0  0  0  0  0  0  0  0  0  0  0
    1.5000    0.0000    0.0000 C   0  0  0  0  0  0  0  0  0  0  0  0
    0.7500    1.2990    0.0000 C   0  0  0  0  0  0  0  0  0  0  0  0
   -0.7500    1.2990    0.0000 C   0  0  0  0  0  0  0  0  0  0  0  0
   -1.5000    2.5981    0.0000 O   0  0  0  0  0  0  0  0  0  0  0  0
   -0.7500    3.8971    0.0000 C   0  0  0  0  0  0  0  0  0  0  0  0
   -1.5000    0.0000    0.0000 C   0  0  0  0  0  0  0  0  0  0  0  0
   -0.7500   -1.2990    0.0000 C   0  0  0  0  0  0  0  0  0  0  0  0
    0.8899   -9.1645    0.0000 C   0  0  0  0  0  0  0  0  0  0  0  0
    2.0046  -10.1682    0.0000 C   0  0  0  0  0  0  0  0  0  0  0  0
    1.8478  -11.6600    0.0000 O   0  0  0  0  0  0  0  0  0  0  0  0
    0.4775  -12.2701    0.0000 Si  0  0  0  0  0  4  0  0  0  0  0  0
    1.0876  -13.6404    0.0000 C   0  0  0  0  0  0  0  0  0  0  0  0
   -0.1326  -10.8998    0.0000 C   0  0  0  0  0  0  0  0  0  0  0  0
   -0.8928  -12.8802    0.0000 C   0  0  0  0  0  0  0  0  0  0  0  0
   -1.5029  -11.5099    0.0000 C   0  0  0  0  0  0  0  0  0  0  0  0
   -0.2827  -14.2506    0.0000 C   0  0  0  0  0  0  0  0  0  0  0  0
   -2.2631  -13.4903    0.0000 C   0  0  0  0  0  0  0  0  0  0  0  0
  1  2  1  0
  2  3  1  0
  3  4  2  0
  5  3  1  6
  5  6  1  0
  6  7  1  0
  7  8  1  6
  8  9  1  0
  9 10  1  0
 10 11  1  0
 11 12  1  0
 12 13  1  0
 13 14  2  0
 14 15  1  0
 15 16  1  0
 16 17  1  0
 15 18  2  0
 18 19  1  0
  7 20  1  0
 20 21  1  0
 21 22  1  6
 22 23  1  0
 23 24  1  0
 23 25  1  0
 23 26  1  0
 26 27  1  0
 26 28  1  0
 26 29  1  0
 21  5  1  0
 19 12  2  0
M  END
$$$$
19
     RDKit          2D

 20 20  0  0  0  0  0  0  0  0999 V2000
    5.0260   -1.2990    0.0000 C   0  0  0  0  0  0  0  0  0  0  0  0
    3.5260   -1.2990    0.0000 O   0  0  0  0  0  0  0  0  0  0  0  0
    2.7760    0.0000    0.0000 C   0  0  0  0  0  0  0  0  0  0  0  0
    3.5260    1.2990    0.0000 O   0  0  0  0  0  0  0  0  0  0  0  0
    1.2760    0.0000    0.0000 C   0  0  0  0  0  0  0  0  0  0  0  0
    0.3943    1.2135    0.0000 O   0  0  0  0  0  0  0  0  0  0  0  0
   -1.0323    0.7500    0.0000 C   0  0  0  0  0  0  0  0  0  0  0  0
   -2.2458    1.6317    0.0000 C   0  0  0  0  0  0  0  0  0  0  0  0
   -2.0890    3.1235    0.0000 C   0  0  0  0  0  0  0  0  0  0  0  0
   -3.3025    4.0051    0.0000 O   0  0  0  0  0  0  0  0  0  0  0  0
   -1.0323   -0.7500    0.0000 C   0  0  0  0  0  0  0  0  0  0  0  0
    0.3943   -1.2135    0.0000 C   0  0  0  0  0  0  0  0  0  0  0  0
    0.8578   -2.6401    0.0000 O   0  0  0  0  0  0  0  0  0  0  0  0
   -0.1459   -3.7548    0.0000 Si  0  0  0  0  0  4  0  0  0  0  0  0
    0.9688   -4.7585    0.0000 C   0  0  0  0  0  0  0  0  0  0  0  0
   -1.2606   -2.7511    0.0000 C   0  0  0  0  0  0  0  0  0  0  0  0
   -1.1496   -4.8695    0.0000 C   0  0  0  0  0  0  0  0  0  0  0  0
   -2.2643   -3.8658    0.0000 C   0  0  0  0  0  0  0  0  0  0  0  0
   -0.0349   -5.8732    0.0000 C   0  0  0  0  0  0  0  0  0  0  0  0
   -2.1533   -5.9843    0.0000 C   0  0  0  0  0  0  0  0  0  0  0  0
  1  2  1  0
  2  3  1  0
  3  4  2  0
  5  3  1  6
  5  6  1  0
  6  7  1  0
  7  8  1  6
  8  9  1  0
  9 10  2  0
  7 11  1  0
 11 12  1  0
 12 13  1  6
 13 14  1  0
 14 15  1  0
 14 16  1  0
 14 17  1  0
 17 18  1  0
 17 19  1  0
 17 20  1  0
 12  5  1  0
M  END
$$$$
18
     RDKit          2D

 17 16  0  0  0  0  0  0  0  0999 V2000
   -5.2500   -3.8971    0.0000 C   0  0  0  0  0  0  0  0  0  0  0  0
   -4.5000   -2.5981    0.0000 C   0  0  0  0  0  0  0  0  0  0  0  0
   -5.2500   -1.2990    0.0000 O   0  0  0  0  0  0  0  0  0  0  0  0
   -3.0000   -2.5981    0.0000 C   0  0  0  0  0  0  0  0  0  0  0  0
   -2.2500   -1.2990    0.0000 C   0  0  0  0  0  0  0  0  0  0  0  0
   -0.7500   -1.2990    0.0000 C   0  0  0  0  0  0  0  0  0  0  0  0
    0.0000    0.0000    0.0000 C   0  0  0  0  0  0  0  0  0  0  0  0
    1.5000    0.0000    0.0000 C   0  0  0  0  0  0  0  0  0  0  0  0
    2.2500   -1.2990    0.0000 Si  0  0  0  0  0  4  0  0  0  0  0  0
    3.5490   -0.5490    0.0000 C   0  0  0  0  0  0  0  0  0  0  0  0
    0.9510   -2.0490    0.0000 C   0  0  0  0  0  0  0  0  0  0  0  0
    3.0000   -2.5981    0.0000 C   0  0  0  0  0  0  0  0  0  0  0  0
   -3.0000    0.0000    0.0000 O   0  0  0  0  0  0  0  0  0  0  0  0
   -2.2500    1.2990    0.0000 Si  0  0  0  0  0  4  0  0  0  0  0  0
   -3.5490    2.0490    0.0000 C   0  0  0  0  0  0  0  0  0  0  0  0
   -0.9510    0.5490    0.0000 C   0  0  0  0  0  0  0  0  0  0  0  0
   -1.5000    2.5981    0.0000 C   0  0  0  0  0  0  0  0  0  0  0  0
  1  2  1  0
  2  3  2  0
  2  4  1  0
  5  4  1  6
  5  6  1  0
  6  7  1  0
  7  8  2  0
  8  9  1  0
  9 10  1  0
  9 11  1  0
  9 12  1  0
  5 13  1  0
 13 14  1  0
 14 15  1  0
 14 16  1  0
 14 17  1  0
M  END
$$$$
17
     RDKit          2D

 20 19  0  0  0  0  0  0  0  0999 V2000
   -5.2500   -6.4952    0.0000 C   0  0  0  0  0  0  0  0  0  0  0  0
   -4.5000   -5.1962    0.0000 O   0  0  0  0  0  0  0  0  0  0  0  0
   -5.2500   -3.8971    0.0000 N   0  0  0  0  0  0  0  0  0  0  0  0
   -6.7500   -3.8971    0.0000 C   0  0  0  0  0  0  0  0  0  0  0  0
   -4.5000   -2.5981    0.0000 C   0  0  0  0  0  0  0  0  0  0  0  0
   -5.2500   -1.2990    0.0000 O   0  0  0  0  0  0  0  0  0  0  0  0
   -3.0000   -2.5981    0.0000 C   0  0  0  0  0  0  0  0  0  0  0  0
   -2.2500   -1.2990    0.0000 C   0  0  0  0  0  0  0  0  0  0  0  0
   -0.7500   -1.2990    0.0000 C   0  0  0  0  0  0  0  0  0  0  0  0
    0.0000    0.0000    0.0000 C   0  0  0  0  0  0  0  0  0  0  0  0
    1.5000    0.0000    0.0000 C   0  0  0  0  0  0  0  0  0  0  0  0
    2.2500   -1.2990    0.0000 Si  0  0  0  0  0  4  0  0  0  0  0  0
    3.5490   -0.5490    0.0000 C   0  0  0  0  0  0  0  0  0  0  0  0
    0.9510   -2.0490    0.0000 C   0  0  0  0  0  0  0  0  0  0  0  0
    3.0000   -2.5981    0.0000 C   0  0  0  0  0  0  0  0  0  0  0  0
   -3.0000    0.0000    0.0000 O   0  0  0  0  0  0  0  0  0  0  0  0
   -2.2500    1.2990    0.0000 Si  0  0  0  0  0  4  0  0  0  0  0  0
   -3.5490    2.0490    0.0000 C   0  0  0  0  0  0  0  0  0  0  0  0
   -0.9510    0.5490    0.0000 C   0  0  0  0  0  0  0  0  0  0  0  0
   -1.5000    2.5981    0.0000 C   0  0  0  0  0  0  0  0  0  0  0  0
  1  2  1  0
  2  3  1  0
  3  4  1  0
  3  5  1  0
  5  6  2  0
  5  7  1  0
  8  7  1  6
  8  9  1  0
  9 10  1  0
 10 11  2  0
 11 12  1  0
 12 13  1  0
 12 14  1  0
 12 15  1  0
  8 16  1  0
 16 17  1  0
 17 18  1  0
 17 19  1  0
 17 20  1  0
M  END
$$$$
16
     RDKit          2D

 19 18  0  0  0  0  0  0  0  0999 V2000
   -7.5000   -5.1962    0.0000 C   0  0  0  0  0  0  0  0  0  0  0  0
   -6.7500   -3.8971    0.0000 C   0  0  0  0  0  0  0  0  0  0  0  0
   -5.2500   -3.8971    0.0000 O   0  0  0  0  0  0  0  0  0  0  0  0
   -4.5000   -2.5981    0.0000 C   0  0  0  0  0  0  0  0  0  0  0  0
   -5.2500   -1.2990    0.0000 O   0  0  0  0  0  0  0  0  0  0  0  0
   -3.0000   -2.5981    0.0000 C   0  0  0  0  0  0  0  0  0  0  0  0
   -2.2500   -1.2990    0.0000 C   0  0  0  0  0  0  0  0  0  0  0  0
   -0.7500   -1.2990    0.0000 C   0  0  0  0  0  0  0  0  0  0  0  0
    0.0000    0.0000    0.0000 C   0  0  0  0  0  0  0  0  0  0  0  0
    1.5000    0.0000    0.0000 C   0  0  0  0  0  0  0  0  0  0  0  0
    2.2500   -1.2990    0.0000 Si  0  0  0  0  0  4  0  0  0  0  0  0
    3.5490   -0.5490    0.0000 C   0  0  0  0  0  0  0  0  0  0  0  0
    0.9510   -2.0490    0.0000 C   0  0  0  0  0  0  0  0  0  0  0  0
    3.0000   -2.5981    0.0000 C   0  0  0  0  0  0  0  0  0  0  0  0
   -3.0000    0.0000    0.0000 O   0  0  0  0  0  0  0  0  0  0  0  0
   -2.2500    1.2990    0.0000 Si  0  0  0  0  0  4  0  0  0  0  0  0
   -3.5490    2.0490    0.0000 C   0  0  0  0  0  0  0  0  0  0  0  0
   -0.9510    0.5490    0.0000 C   0  0  0  0  0  0  0  0  0  0  0  0
   -1.5000    2.5981    0.0000 C   0  0  0  0  0  0  0  0  0  0  0  0
  1  2  1  0
  2  3  1  0
  3  4  1  0
  4  5  2  0
  4  6  1  0
  7  6  1  6
  7  8  1  0
  8  9  1  0
  9 10  2  0
 10 11  1  0
 11 12  1  0
 11 13  1  0
 11 14  1  0
  7 15  1  0
 15 16  1  0
 16 17  1  0
 16 18  1  0
 16 19  1  0
M  END
$$$$
S5
     RDKit          2D

 15 14  0  0  0  0  0  0  0  0999 V2000
   -7.5000   -5.1962    0.0000 C   0  0  0  0  0  0  0  0  0  0  0  0
   -6.7500   -3.8971    0.0000 C   0  0  0  0  0  0  0  0  0  0  0  0
   -5.2500   -3.8971    0.0000 O   0  0  0  0  0  0  0  0  0  0  0  0
   -4.5000   -2.5981    0.0000 C   0  0  0  0  0  0  0  0  0  0  0  0
   -5.2500   -1.2990    0.0000 O   0  0  0  0  0  0  0  0  0  0  0  0
   -3.0000   -2.5981    0.0000 C   0  0  0  0  0  0  0  0  0  0  0  0
   -2.2500   -1.2990    0.0000 C   0  0  0  0  0  0  0  0  0  0  0  0
   -3.0000    0.0000    0.0000 O   0  0  0  0  0  0  0  0  0  0  0  0
   -0.7500   -1.2990    0.0000 C   0  0  0  0  0  0  0  0  0  0  0  0
    0.0000    0.0000    0.0000 C   0  0  0  0  0  0  0  0  0  0  0  0
    1.5000    0.0000    0.0000 C   0  0  0  0  0  0  0  0  0  0  0  0
    2.2500   -1.2990    0.0000 Si  0  0  0  0  0  4  0  0  0  0  0  0
    3.5490   -0.5490    0.0000 C   0  0  0  0  0  0  0  0  0  0  0  0
    0.9510   -2.0490    0.0000 C   0  0  0  0  0  0  0  0  0  0  0  0
    3.0000   -2.5981    0.0000 C   0  0  0  0  0  0  0  0  0  0  0  0
  1  2  1  0
  2  3  1  0
  3  4  1  0
  4  5  2  0
  4  6  1  0
  6  7  1  0
  7  8  1  6
  7  9  1  0
  9 10  1  0
 10 11  2  0
 11 12  1  0
 12 13  1  0
 12 14  1  0
 12 15  1  0
M  END
$$$$
15
     RDKit          2D

 15 14  0  0  0  0  0  0  0  0999 V2000
    0.0000    0.0000    0.0000 C   0  0  0  0  0  0  0  0  0  0  0  0
    1.2990    0.7500    0.0000 C   0  0  0  0  0  0  0  0  0  0  0  0
    2.5981   -0.0000    0.0000 O   0  0  0  0  0  0  0  0  0  0  0  0
    3.8971    0.7500    0.0000 C   0  0  0  0  0  0  0  0  0  0  0  0
    3.8971    2.2500    0.0000 O   0  0  0  0  0  0  0  0  0  0  0  0
    5.1962   -0.0000    0.0000 C   0  0  0  0  0  0  0  0  0  0  0  0
    6.4952    0.7500    0.0000 C   0  0  0  0  0  0  0  0  0  0  0  0
    6.4952    2.2500    0.0000 O   0  0  0  0  0  0  0  0  0  0  0  0
    7.7942   -0.0000    0.0000 C   0  0  0  0  0  0  0  0  0  0  0  0
    9.0933    0.7500    0.0000 C   0  0  0  0  0  0  0  0  0  0  0  0
   10.3923    1.5000    0.0000 C   0  0  0  0  0  0  0  0  0  0  0  0
   11.6913    2.2500    0.0000 Si  0  0  0  0  0  4  0  0  0  0  0  0
   12.4413    0.9510    0.0000 C   0  0  0  0  0  0  0  0  0  0  0  0
   10.9413    3.5490    0.0000 C   0  0  0  0  0  0  0  0  0  0  0  0
   12.9904    3.0000    0.0000 C   0  0  0  0  0  0  0  0  0  0  0  0
  1  2  1  0
  2  3  1  0
  3  4  1  0
  4  5  2  0
  4  6  1  0
  6  7  1  0
  7  8  1  6
  7  9  1  0
  9 10  1  0
 10 11  3  0
 11 12  1  0
 12 13  1  0
 12 14  1  0
 12 15  1  0
M  END
$$$$
13
     RDKit          2D

 10  9  0  0  0  0  0  0  0  0999 V2000
    0.0000    0.0000    0.0000 C   0  0  0  0  0  0  0  0  0  0  0  0
    1.2990    0.7500    0.0000 C   0  0  0  0  0  0  0  0  0  0  0  0
    2.5981   -0.0000    0.0000 O   0  0  0  0  0  0  0  0  0  0  0  0
    3.8971    0.7500    0.0000 C   0  0  0  0  0  0  0  0  0  0  0  0
    3.8971    2.2500    0.0000 O   0  0  0  0  0  0  0  0  0  0  0  0
    5.1962   -0.0000    0.0000 C   0  0  0  0  0  0  0  0  0  0  0  0
    6.4952    0.7500    0.0000 C   0  0  0  0  0  0  0  0  0  0  0  0
    6.4952    2.2500    0.0000 O   0  0  0  0  0  0  0  0  0  0  0  0
    7.7942   -0.0000    0.0000 C   0  0  0  0  0  0  0  0  0  0  0  0
    9.0933    0.7500    0.0000 I   0  0  0  0  0  0  0  0  0  0  0  0
  1  2  1  0
  2  3  1  0
  3  4  1  0
  4  5  2  0
  4  6  1  0
  6  7  1  0
  7  8  1  6
  7  9  1  0
  9 10  1  0
M  END
$$$$
14
     RDKit          2D

  9  9  0  0  0  0  0  0  0  0999 V2000
    6.8660   -2.5981    0.0000 C   0  0  0  0  0  0  0  0  0  0  0  0
    5.3660   -2.5981    0.0000 C   0  0  0  0  0  0  0  0  0  0  0  0
    4.6160   -1.2990    0.0000 O   0  0  0  0  0  0  0  0  0  0  0  0
    3.1160   -1.2990    0.0000 C   0  0  0  0  0  0  0  0  0  0  0  0
    2.3660   -2.5981    0.0000 O   0  0  0  0  0  0  0  0  0  0  0  0
    2.3660    0.0000    0.0000 C   0  0  0  0  0  0  0  0  0  0  0  0
    0.8660    0.0000    0.0000 C   0  0  0  0  0  0  0  0  0  0  0  0
   -0.4330    0.7500    0.0000 C   0  0  0  0  0  0  0  0  0  0  0  0
   -0.4330   -0.7500    0.0000 O   0  0  0  0  0  0  0  0  0  0  0  0
  1  2  1  0
  2  3  1  0
  3  4  1  0
  4  5  2  0
  4  6  1  0
  7  6  1  6
  7  8  1  0
  8  9  1  0
  9  7  1  0
M  END
$$$$
12
     RDKit          2D

  7  7  0  0  0  0  0  0  0  0999 V2000
    2.7760    0.0000    0.0000 O   0  0  0  0  0  0  0  0  0  0  0  0
    1.2760    0.0000    0.0000 C   0  0  0  0  0  0  0  0  0  0  0  0
    0.3943    1.2135    0.0000 C   0  0  0  0  0  0  0  0  0  0  0  0
   -1.0323    0.7500    0.0000 C   0  0  0  0  0  0  0  0  0  0  0  0
   -2.2458    1.6317    0.0000 O   0  0  0  0  0  0  0  0  0  0  0  0
   -1.0323   -0.7500    0.0000 C   0  0  0  0  0  0  0  0  0  0  0  0
    0.3943   -1.2135    0.0000 O   0  0  0  0  0  0  0  0  0  0  0  0
  1  2  2  0
  2  3  1  0
  3  4  1  0
  4  5  1  1
  4  6  1  0
  6  7  1  0
  7  2  1  0
M  END
$$$$
7
     RDKit          2D

 27 27  0  0  0  0  0  0  0  0999 V2000
    6.0000   -2.5981    0.0000 C   0  0  0  0  0  0  0  0  0  0  0  0
    5.2500   -1.2990    0.0000 C   0  0  0  0  0  0  0  0  0  0  0  0
    3.7500   -1.2990    0.0000 C   0  0  0  0  0  0  0  0  0  0  0  0
    3.0000   -2.5981    0.0000 O   0  0  0  0  0  0  0  0  0  0  0  0
    3.0000    0.0000    0.0000 C   0  0  0  0  0  0  0  0  0  0  0  0
    1.5000    0.0000    0.0000 C   0  0  0  0  0  0  0  0  0  0  0  0
    0.7500   -1.2990    0.0000 O   0  0  0  0  0  0  0  0  0  0  0  0
   -0.7500   -1.2990    0.0000 C   0  0  0  0  0  0  0  0  0  0  0  0
   -1.5000    0.0000    0.0000 C   0  0  0  0  0  0  0  0  0  0  0  0
   -0.7500    1.2990    0.0000 C   0  0  0  0  0  0  0  0  0  0  0  0
   -1.5000    2.5981    0.0000 O   0  0  0  0  0  0  0  0  0  0  0  0
   -0.7500    3.8971    0.0000 Si  0  0  0  0  0  4  0  0  0  0  0  0
   -2.0490    4.6471    0.0000 C   0  0  0  0  0  0  0  0  0  0  0  0
    0.5490    3.1471    0.0000 C   0  0  0  0  0  0  0  0  0  0  0  0
    0.0000    5.1962    0.0000 C   0  0  0  0  0  0  0  0  0  0  0  0
    1.2990    4.4462    0.0000 C   0  0  0  0  0  0  0  0  0  0  0  0
   -1.2990    5.9462    0.0000 C   0  0  0  0  0  0  0  0  0  0  0  0
    0.7500    6.4952    0.0000 C   0  0  0  0  0  0  0  0  0  0  0  0
    0.7500    1.2990    0.0000 C   0  0  0  0  0  0  0  0  0  0  0  0
    1.5000    2.5981    0.0000 O   0  0  0  0  0  0  0  0  0  0  0  0
    3.0000    2.5981    0.0000 Si  0  0  0  0  0  4  0  0  0  0  0  0
    3.0000    4.0981    0.0000 C   0  0  0  0  0  0  0  0  0  0  0  0
    3.0000    1.0981    0.0000 C   0  0  0  0  0  0  0  0  0  0  0  0
    4.5000    2.5981    0.0000 C   0  0  0  0  0  0  0  0  0  0  0  0
    4.5000    1.0981    0.0000 C   0  0  0  0  0  0  0  0  0  0  0  0
    4.5000    4.0981    0.0000 C   0  0  0  0  0  0  0  0  0  0  0  0
    6.0000    2.5981    0.0000 C   0  0  0  0  0  0  0  0  0  0  0  0
  1  2  2  0
  2  3  1  0
  3  4  1  1
  3  5  1  0
  6  5  1  1
  6  7  1  0
  7  8  1  0
  8  9  1  0
  9 10  1  0
 10 11  1  6
 11 12  1  0
 12 13  1  0
 12 14  1  0
 12 15  1  0
 15 16  1  0
 15 17  1  0
 15 18  1  0
 10 19  1  0
 19 20  1  6
 20 21  1  0
 21 22  1  0
 21 23  1  0
 21 24  1  0
 24 25  1  0
 24 26  1  0
 24 27  1  0
 19  6  1  0
M  END
$$$$
8
     RDKit          2D

 27 27  0  0  0  0  0  0  0  0999 V2000
    6.0000   -2.5981    0.0000 C   0  0  0  0  0  0  0  0  0  0  0  0
    5.2500   -1.2990    0.0000 C   0  0  0  0  0  0  0  0  0  0  0  0
    3.7500   -1.2990    0.0000 C   0  0  0  0  0  0  0  0  0  0  0  0
    3.0000   -2.5981    0.0000 O   0  0  0  0  0  0  0  0  0  0  0  0
    3.0000    0.0000    0.0000 C   0  0  0  0  0  0  0  0  0  0  0  0
    1.5000    0.0000    0.0000 C   0  0  0  0  0  0  0  0  0  0  0  0
    0.7500   -1.2990    0.0000 O   0  0  0  0  0  0  0  0  0  0  0  0
   -0.7500   -1.2990    0.0000 C   0  0  0  0  0  0  0  0  0  0  0  0
   -1.5000    0.0000    0.0000 C   0  0  0  0  0  0  0  0  0  0  0  0
   -0.7500    1.2990    0.0000 C   0  0  0  0  0  0  0  0  0  0  0  0
   -1.5000    2.5981    0.0000 O   0  0  0  0  0  0  0  0  0  0  0  0
   -0.7500    3.8971    0.0000 Si  0  0  0  0  0  4  0  0  0  0  0  0
   -2.0490    4.6471    0.0000 C   0  0  0  0  0  0  0  0  0  0  0  0
    0.5490    3.1471    0.0000 C   0  0  0  0  0  0  0  0  0  0  0  0
    0.0000    5.1962    0.0000 C   0  0  0  0  0  0  0  0  0  0  0  0
    1.2990    4.4462    0.0000 C   0  0  0  0  0  0  0  0  0  0  0  0
   -1.2990    5.9462    0.0000 C   0  0  0  0  0  0  0  0  0  0  0  0
    0.7500    6.4952    0.0000 C   0  0  0  0  0  0  0  0  0  0  0  0
    0.7500    1.2990    0.0000 C   0  0  0  0  0  0  0  0  0  0  0  0
    1.5000    2.5981    0.0000 O   0  0  0  0  0  0  0  0  0  0  0  0
    3.0000    2.5981    0.0000 Si  0  0  0  0  0  4  0  0  0  0  0  0
    3.0000    4.0981    0.0000 C   0  0  0  0  0  0  0  0  0  0  0  0
    3.0000    1.0981    0.0000 C   0  0  0  0  0  0  0  0  0  0  0  0
    4.5000    2.5981    0.0000 C   0  0  0  0  0  0  0  0  0  0  0  0
    4.5000    1.0981    0.0000 C   0  0  0  0  0  0  0  0  0  0  0  0
    4.5000    4.0981    0.0000 C   0  0  0  0  0  0  0  0  0  0  0  0
    6.0000    2.5981    0.0000 C   0  0  0  0  0  0  0  0  0  0  0  0
  1  2  2  0
  2  3  1  0
  3  4  1  6
  3  5  1  0
  6  5  1  1
  6  7  1  0
  7  8  1  0
  8  9  1  0
  9 10  1  0
 10 11  1  6
 11 12  1  0
 12 13  1  0
 12 14  1  0
 12 15  1  0
 15 16  1  0
 15 17  1  0
 15 18  1  0
 10 19  1  0
 19 20  1  6
 20 21  1  0
 21 22  1  0
 21 23  1  0
 21 24  1  0
 24 25  1  0
 24 26  1  0
 24 27  1  0
 19  6  1  0
M  END
$$$$
8a
     RDKit          2D

 27 27  0  0  0  0  0  0  0  0999 V2000
    6.0000   -2.5981    0.0000 C   0  0  0  0  0  0  0  0  0  0  0  0
    5.2500   -1.2990    0.0000 C   0  0  0  0  0  0  0  0  0  0  0  0
    3.7500   -1.2990    0.0000 C   0  0  0  0  0  0  0  0  0  0  0  0
    3.0000   -2.5981    0.0000 O   0  0  0  0  0  0  0  0  0  0  0  0
    3.0000    0.0000    0.0000 C   0  0  0  0  0  0  0  0  0  0  0  0
    1.5000    0.0000    0.0000 C   0  0  0  0  0  0  0  0  0  0  0  0
    0.7500   -1.2990    0.0000 O   0  0  0  0  0  0  0  0  0  0  0  0
   -0.7500   -1.2990    0.0000 C   0  0  0  0  0  0  0  0  0  0  0  0
   -1.5000    0.0000    0.0000 C   0  0  0  0  0  0  0  0  0  0  0  0
   -0.7500    1.2990    0.0000 C   0  0  0  0  0  0  0  0  0  0  0  0
   -1.5000    2.5981    0.0000 O   0  0  0  0  0  0  0  0  0  0  0  0
   -0.7500    3.8971    0.0000 Si  0  0  0  0  0  4  0  0  0  0  0  0
   -2.0490    4.6471    0.0000 C   0  0  0  0  0  0  0  0  0  0  0  0
    0.5490    3.1471    0.0000 C   0  0  0  0  0  0  0  0  0  0  0  0
    0.0000    5.1962    0.0000 C   0  0  0  0  0  0  0  0  0  0  0  0
    1.2990    4.4462    0.0000 C   0  0  0  0  0  0  0  0  0  0  0  0
   -1.2990    5.9462    0.0000 C   0  0  0  0  0  0  0  0  0  0  0  0
    0.7500    6.4952    0.0000 C   0  0  0  0  0  0  0  0  0  0  0  0
    0.7500    1.2990    0.0000 C   0  0  0  0  0  0  0  0  0  0  0  0
    1.5000    2.5981    0.0000 O   0  0  0  0  0  0  0  0  0  0  0  0
    3.0000    2.5981    0.0000 Si  0  0  0  0  0  4  0  0  0  0  0  0
    3.0000    4.0981    0.0000 C   0  0  0  0  0  0  0  0  0  0  0  0
    3.0000    1.0981    0.0000 C   0  0  0  0  0  0  0  0  0  0  0  0
    4.5000    2.5981    0.0000 C   0  0  0  0  0  0  0  0  0  0  0  0
    4.5000    1.0981    0.0000 C   0  0  0  0  0  0  0  0  0  0  0  0
    4.5000    4.0981    0.0000 C   0  0  0  0  0  0  0  0  0  0  0  0
    6.0000    2.5981    0.0000 C   0  0  0  0  0  0  0  0  0  0  0  0
  1  2  2  0
  2  3  1  0
  3  4  2  0
  3  5  1  0
  6  5  1  1
  6  7  1  0
  7  8  1  0
  8  9  1  0
  9 10  1  0
 10 11  1  6
 11 12  1  0
 12 13  1  0
 12 14  1  0
 12 15  1  0
 15 16  1  0
 15 17  1  0
 15 18  1  0
 10 19  1  0
 19 20  1  6
 20 21  1  0
 21 22  1  0
 21 23  1  0
 21 24  1  0
 24 25  1  0
 24 26  1  0
 24 27  1  0
 19  6  1  0
M  END
$$$$
S4
     RDKit          2D

 25 25  0  0  0  0  0  0  0  0999 V2000
    5.7990   -1.8481    0.0000 C   0  0  0  0  0  0  0  0  0  0  0  0
    4.5000   -2.5981    0.0000 C   0  0  0  0  0  0  0  0  0  0  0  0
    3.2010   -3.3481    0.0000 C   0  0  0  0  0  0  0  0  0  0  0  0
    5.2500   -3.8971    0.0000 C   0  0  0  0  0  0  0  0  0  0  0  0
    3.7500   -1.2990    0.0000 Si  0  0  0  0  0  4  0  0  0  0  0  0
    5.0490   -0.5490    0.0000 C   0  0  0  0  0  0  0  0  0  0  0  0
    2.4510   -2.0490    0.0000 C   0  0  0  0  0  0  0  0  0  0  0  0
    3.0000    0.0000    0.0000 O   0  0  0  0  0  0  0  0  0  0  0  0
    1.5000    0.0000    0.0000 C   0  0  0  0  0  0  0  0  0  0  0  0
    0.7500   -1.2990    0.0000 C   0  0  0  0  0  0  0  0  0  0  0  0
    1.5000   -2.5981    0.0000 O   0  0  0  0  0  0  0  0  0  0  0  0
    0.7500   -3.8971    0.0000 Si  0  0  0  0  0  4  0  0  0  0  0  0
    2.0490   -4.6471    0.0000 C   0  0  0  0  0  0  0  0  0  0  0  0
   -0.5490   -3.1471    0.0000 C   0  0  0  0  0  0  0  0  0  0  0  0
   -0.0000   -5.1962    0.0000 C   0  0  0  0  0  0  0  0  0  0  0  0
   -1.2990   -4.4462    0.0000 C   0  0  0  0  0  0  0  0  0  0  0  0
    1.2990   -5.9462    0.0000 C   0  0  0  0  0  0  0  0  0  0  0  0
   -0.7500   -6.4952    0.0000 C   0  0  0  0  0  0  0  0  0  0  0  0
   -0.7500   -1.2990    0.0000 C   0  0  0  0  0  0  0  0  0  0  0  0
   -1.5000    0.0000    0.0000 C   0  0  0  0  0  0  0  0  0  0  0  0
   -0.7500    1.2990    0.0000 O   0  0  0  0  0  0  0  0  0  0  0  0
    0.7500    1.2990    0.0000 C   0  0  0  0  0  0  0  0  0  0  0  0
    1.5000    2.5981    0.0000 C   0  0  0  0  0  0  0  0  0  0  0  0
    3.0000    2.5981    0.0000 C   0  0  0  0  0  0  0  0  0  0  0  0
    3.7500    3.8971    0.0000 O   0  0  0  0  0  0  0  0  0  0  0  0
  1  2  1  0
  2  3  1  0
  2  4  1  0
  2  5  1  0
  5  6  1  0
  5  7  1  0
  5  8  1  0
  9  8  1  1
  9 10  1  0
 10 11  1  1
 11 12  1  0
 12 13  1  0
 12 14  1  0
 12 15  1  0
 15 16  1  0
 15 17  1  0
 15 18  1  0
 10 19  1  0
 19 20  1  0
 20 21  1  0
 21 22  1  0
 22 23  1  6
 23 24  1  0
 24 25  1  0
 22  9  1  0
M  END
$$$$
6
     RDKit          2D

 25 25  0  0  0  0  0  0  0  0999 V2000
    5.7990   -1.8481    0.0000 C   0  0  0  0  0  0  0  0  0  0  0  0
    4.5000   -2.5981    0.0000 C   0  0  0  0  0  0  0  0  0  0  0  0
    3.2010   -3.3481    0.0000 C   0  0  0  0  0  0  0  0  0  0  0  0
    5.2500   -3.8971    0.0000 C   0  0  0  0  0  0  0  0  0  0  0  0
    3.7500   -1.2990    0.0000 Si  0  0  0  0  0  4  0  0  0  0  0  0
    5.0490   -0.5490    0.0000 C   0  0  0  0  0  0  0  0  0  0  0  0
    2.4510   -2.0490    0.0000 C   0  0  0  0  0  0  0  0  0  0  0  0
    3.0000    0.0000    0.0000 O   0  0  0  0  0  0  0  0  0  0  0  0
    1.5000    0.0000    0.0000 C   0  0  0  0  0  0  0  0  0  0  0  0
    0.7500   -1.2990    0.0000 C   0  0  0  0  0  0  0  0  0  0  0  0
    1.5000   -2.5981    0.0000 O   0  0  0  0  0  0  0  0  0  0  0  0
    0.7500   -3.8971    0.0000 Si  0  0  0  0  0  4  0  0  0  0  0  0
    2.0490   -4.6471    0.0000 C   0  0  0  0  0  0  0  0  0  0  0  0
   -0.5490   -3.1471    0.0000 C   0  0  0  0  0  0  0  0  0  0  0  0
   -0.0000   -5.1962    0.0000 C   0  0  0  0  0  0  0  0  0  0  0  0
   -1.2990   -4.4462    0.0000 C   0  0  0  0  0  0  0  0  0  0  0  0
    1.2990   -5.9462    0.0000 C   0  0  0  0  0  0  0  0  0  0  0  0
   -0.7500   -6.4952    0.0000 C   0  0  0  0  0  0  0  0  0  0  0  0
   -0.7500   -1.2990    0.0000 C   0  0  0  0  0  0  0  0  0  0  0  0
   -1.5000    0.0000    0.0000 C   0  0  0  0  0  0  0  0  0  0  0  0
   -0.7500    1.2990    0.0000 O   0  0  0  0  0  0  0  0  0  0  0  0
    0.7500    1.2990    0.0000 C   0  0  0  0  0  0  0  0  0  0  0  0
    1.5000    2.5981    0.0000 C   0  0  0  0  0  0  0  0  0  0  0  0
    3.0000    2.5981    0.0000 C   0  0  0  0  0  0  0  0  0  0  0  0
    3.7500    3.8971    0.0000 O   0  0  0  0  0  0  0  0  0  0  0  0
  1  2  1  0
  2  3  1  0
  2  4  1  0
  2  5  1  0
  5  6  1  0
  5  7  1  0
  5  8  1  0
  9  8  1  1
  9 10  1  0
 10 11  1  1
 11 12  1  0
 12 13  1  0
 12 14  1  0
 12 15  1  0
 15 16  1  0
 15 17  1  0
 15 18  1  0
 10 19  1  0
 19 20  1  0
 20 21  1  0
 21 22  1  0
 22 23  1  6
 23 24  1  0
 24 25  2  0
 22  9  1  0
M  END
$$$$
S3
     RDKit          2D

 34 35  0  0  0  0  0  0  0  0999 V2000
    3.7500   -1.2990    0.0000 C   0  0  0  0  0  0  0  0  0  0  0  0
    3.0000    0.0000    0.0000 O   0  0  0  0  0  0  0  0  0  0  0  0
    1.5000    0.0000    0.0000 C   0  0  0  0  0  0  0  0  0  0  0  0
    0.7500   -1.2990    0.0000 C   0  0  0  0  0  0  0  0  0  0  0  0
   -0.7500   -1.2990    0.0000 C   0  0  0  0  0  0  0  0  0  0  0  0
   -1.5000    0.0000    0.0000 C   0  0  0  0  0  0  0  0  0  0  0  0
   -3.0000    0.0000    0.0000 C   0  0  0  0  0  0  0  0  0  0  0  0
   -3.7500    1.2990    0.0000 O   0  0  0  0  0  0  0  0  0  0  0  0
   -5.2500    1.2990    0.0000 C   0  0  0  0  0  0  0  0  0  0  0  0
   -6.0000    2.5981    0.0000 C   0  0  0  0  0  0  0  0  0  0  0  0
   -7.5000    2.5981    0.0000 C   0  0  0  0  0  0  0  0  0  0  0  0
   -8.2500    3.8971    0.0000 O   0  0  0  0  0  0  0  0  0  0  0  0
   -9.7500    3.8971    0.0000 C   0  0  0  0  0  0  0  0  0  0  0  0
  -10.5000    2.5981    0.0000 C   0  0  0  0  0  0  0  0  0  0  0  0
   -9.7500    1.2990    0.0000 C   0  0  0  0  0  0  0  0  0  0  0  0
  -10.5000    0.0000    0.0000 O   0  0  0  0  0  0  0  0  0  0  0  0
  -12.0000    0.0000    0.0000 Si  0  0  0  0  0  4  0  0  0  0  0  0
  -12.0000   -1.5000    0.0000 C   0  0  0  0  0  0  0  0  0  0  0  0
  -12.0000    1.5000    0.0000 C   0  0  0  0  0  0  0  0  0  0  0  0
  -13.5000    0.0000    0.0000 C   0  0  0  0  0  0  0  0  0  0  0  0
  -13.5000    1.5000    0.0000 C   0  0  0  0  0  0  0  0  0  0  0  0
  -13.5000   -1.5000    0.0000 C   0  0  0  0  0  0  0  0  0  0  0  0
  -15.0000    0.0000    0.0000 C   0  0  0  0  0  0  0  0  0  0  0  0
   -8.2500    1.2990    0.0000 C   0  0  0  0  0  0  0  0  0  0  0  0
   -7.5000    0.0000    0.0000 O   0  0  0  0  0  0  0  0  0  0  0  0
   -8.2500   -1.2990    0.0000 Si  0  0  0  0  0  4  0  0  0  0  0  0
   -6.9510   -2.0490    0.0000 C   0  0  0  0  0  0  0  0  0  0  0  0
   -9.5490   -0.5490    0.0000 C   0  0  0  0  0  0  0  0  0  0  0  0
   -9.0000   -2.5981    0.0000 C   0  0  0  0  0  0  0  0  0  0  0  0
   -7.7010   -3.3481    0.0000 C   0  0  0  0  0  0  0  0  0  0  0  0
  -10.2990   -1.8481    0.0000 C   0  0  0  0  0  0  0  0  0  0  0  0
   -9.7500   -3.8971    0.0000 C   0  0  0  0  0  0  0  0  0  0  0  0
   -0.7500    1.2990    0.0000 C   0  0  0  0  0  0  0  0  0  0  0  0
    0.7500    1.2990    0.0000 C   0  0  0  0  0  0  0  0  0  0  0  0
  1  2  1  0
  2  3  1  0
  3  4  1  0
  4  5  2  0
  5  6  1  0
  6  7  1  0
  7  8  1  0
  8  9  1  0
  9 10  1  0
 11 10  1  6
 11 12  1  0
 12 13  1  0
 13 14  1  0
 14 15  1  0
 15 16  1  1
 16 17  1  0
 17 18  1  0
 17 19  1  0
 17 20  1  0
 20 21  1  0
 20 22  1  0
 20 23  1  0
 15 24  1  0
 24 25  1  1
 25 26  1  0
 26 27  1  0
 26 28  1  0
 26 29  1  0
 29 30  1  0
 29 31  1  0
 29 32  1  0
  6 33  2  0
 33 34  1  0
 34  3  2  0
 24 11  1  0
M  END
$$$$
5
     RDKit          2D

 20 21  0  0  0  0  0  0  0  0999 V2000
    3.7500   -1.2990    0.0000 C   0  0  0  0  0  0  0  0  0  0  0  0
    3.0000    0.0000    0.0000 O   0  0  0  0  0  0  0  0  0  0  0  0
    1.5000    0.0000    0.0000 C   0  0  0  0  0  0  0  0  0  0  0  0
    0.7500   -1.2990    0.0000 C   0  0  0  0  0  0  0  0  0  0  0  0
   -0.7500   -1.2990    0.0000 C   0  0  0  0  0  0  0  0  0  0  0  0
   -1.5000    0.0000    0.0000 C   0  0  0  0  0  0  0  0  0  0  0  0
   -3.0000    0.0000    0.0000 C   0  0  0  0  0  0  0  0  0  0  0  0
   -3.7500    1.2990    0.0000 O   0  0  0  0  0  0  0  0  0  0  0  0
   -5.2500    1.2990    0.0000 C   0  0  0  0  0  0  0  0  0  0  0  0
   -6.0000    2.5981    0.0000 C   0  0  0  0  0  0  0  0  0  0  0  0
   -7.5000    2.5981    0.0000 C   0  0  0  0  0  0  0  0  0  0  0  0
   -8.2500    3.8971    0.0000 O   0  0  0  0  0  0  0  0  0  0  0  0
   -9.7500    3.8971    0.0000 C   0  0  0  0  0  0  0  0  0  0  0  0
  -10.5000    2.5981    0.0000 C   0  0  0  0  0  0  0  0  0  0  0  0
   -9.7500    1.2990    0.0000 C   0  0  0  0  0  0  0  0  0  0  0  0
  -10.5000    0.0000    0.0000 O   0  0  0  0  0  0  0  0  0  0  0  0
   -8.2500    1.2990    0.0000 C   0  0  0  0  0  0  0  0  0  0  0  0
   -7.5000    0.0000    0.0000 O   0  0  0  0  0  0  0  0  0  0  0  0
   -0.7500    1.2990    0.0000 C   0  0  0  0  0  0  0  0  0  0  0  0
    0.7500    1.2990    0.0000 C   0  0  0  0  0  0  0  0  0  0  0  0
  1  2  1  0
  2  3  1  0
  3  4  1  0
  4  5  2  0
  5  6  1  0
  6  7  1  0
  7  8  1  0
  8  9  1  0
  9 10  1  0
 11 10  1  6
 11 12  1  0
 12 13  1  0
 13 14  1  0
 14 15  1  0
 15 16  1  1
 15 17  1  0
 17 18  1  1
  6 19  2  0
 19 20  1  0
 20  3  2  0
 17 11  1  0
M  END
$$$$
S2
     RDKit          2D

 18 19  0  0  0  0  0  0  0  0999 V2000
    3.7500   -1.2990    0.0000 C   0  0  0  0  0  0  0  0  0  0  0  0
    3.0000    0.0000    0.0000 O   0  0  0  0  0  0  0  0  0  0  0  0
    1.5000    0.0000    0.0000 C   0  0  0  0  0  0  0  0  0  0  0  0
    0.7500   -1.2990    0.0000 C   0  0  0  0  0  0  0  0  0  0  0  0
   -0.7500   -1.2990    0.0000 C   0  0  0  0  0  0  0  0  0  0  0  0
   -1.5000    0.0000    0.0000 C   0  0  0  0  0  0  0  0  0  0  0  0
   -3.0000    0.0000    0.0000 C   0  0  0  0  0  0  0  0  0  0  0  0
   -3.7500    1.2990    0.0000 O   0  0  0  0  0  0  0  0  0  0  0  0
   -5.2500    1.2990    0.0000 C   0  0  0  0  0  0  0  0  0  0  0  0
   -6.0000    2.5981    0.0000 C   0  0  0  0  0  0  0  0  0  0  0  0
   -7.5000    2.5981    0.0000 C   0  0  0  0  0  0  0  0  0  0  0  0
   -8.2500    3.8971    0.0000 C   0  0  0  0  0  0  0  0  0  0  0  0
   -9.7500    3.8971    0.0000 C   0  0  0  0  0  0  0  0  0  0  0  0
  -10.5000    2.5981    0.0000 C   0  0  0  0  0  0  0  0  0  0  0  0
   -9.7500    1.2990    0.0000 C   0  0  0  0  0  0  0  0  0  0  0  0
   -8.2500    1.2990    0.0000 O   0  0  0  0  0  0  0  0  0  0  0  0
   -0.7500    1.2990    0.0000 C   0  0  0  0  0  0  0  0  0  0  0  0
    0.7500    1.2990    0.0000 C   0  0  0  0  0  0  0  0  0  0  0  0
  1  2  1  0
  2  3  1  0
  3  4  1  0
  4  5  2  0
  5  6  1  0
  6  7  1  0
  7  8  1  0
  8  9  1  0
  9 10  1  0
 11 10  1  1
 11 12  1  0
 12 13  2  0
 13 14  1  0
 14 15  1  0
 15 16  1  0
  6 17  2  0
 17 18  1  0
 18  3  2  0
 16 11  1  0
M  END
$$$$
4
     RDKit          2D

 20 20  0  0  0  0  0  0  0  0999 V2000
   12.7500    1.2990    0.0000 C   0  0  0  0  0  0  0  0  0  0  0  0
   12.0000    0.0000    0.0000 C   0  0  0  0  0  0  0  0  0  0  0  0
   10.5000    0.0000    0.0000 C   0  0  0  0  0  0  0  0  0  0  0  0
    9.7500   -1.2990    0.0000 C   0  0  0  0  0  0  0  0  0  0  0  0
    8.2500   -1.2990    0.0000 O   0  0  0  0  0  0  0  0  0  0  0  0
    7.5000   -2.5981    0.0000 C   0  0  0  0  0  0  0  0  0  0  0  0
    8.2500   -3.8971    0.0000 C   0  0  0  0  0  0  0  0  0  0  0  0
    9.7500   -3.8971    0.0000 C   0  0  0  0  0  0  0  0  0  0  0  0
    6.0000   -2.5981    0.0000 C   0  0  0  0  0  0  0  0  0  0  0  0
    5.2500   -1.2990    0.0000 C   0  0  0  0  0  0  0  0  0  0  0  0
    3.7500   -1.2990    0.0000 O   0  0  0  0  0  0  0  0  0  0  0  0
    3.0000    0.0000    0.0000 C   0  0  0  0  0  0  0  0  0  0  0  0
    1.5000    0.0000    0.0000 C   0  0  0  0  0  0  0  0  0  0  0  0
    0.7500   -1.2990    0.0000 C   0  0  0  0  0  0  0  0  0  0  0  0
   -0.7500   -1.2990    0.0000 C   0  0  0  0  0  0  0  0  0  0  0  0
   -1.5000    0.0000    0.0000 C   0  0  0  0  0  0  0  0  0  0  0  0
   -3.0000    0.0000    0.0000 O   0  0  0  0  0  0  0  0  0  0  0  0
   -3.7500    1.2990    0.0000 C   0  0  0  0  0  0  0  0  0  0  0  0
   -0.7500    1.2990    0.0000 C   0  0  0  0  0  0  0  0  0  0  0  0
    0.7500    1.2990    0.0000 C   0  0  0  0  0  0  0  0  0  0  0  0
  1  2  2  0
  2  3  1  0
  3  4  1  0
  4  5  1  0
  5  6  1  0
  6  7  1  0
  7  8  2  0
  6  9  1  1
  9 10  1  0
 10 11  1  0
 11 12  1  0
 12 13  1  0
 13 14  1  0
 14 15  2  0
 15 16  1  0
 16 17  1  0
 17 18  1  0
 16 19  2  0
 19 20  1  0
 20 13  2  0
M  END
$$$$
S1
     RDKit          2D

 21 21  0  0  0  0  0  0  0  0999 V2000
    9.7500   -3.8971    0.0000 C   0  0  0  0  0  0  0  0  0  0  0  0
    8.2500   -3.8971    0.0000 C   0  0  0  0  0  0  0  0  0  0  0  0
    7.5000   -2.5981    0.0000 C   0  0  0  0  0  0  0  0  0  0  0  0
    6.0000   -2.5981    0.0000 C   0  0  0  0  0  0  0  0  0  0  0  0
    5.2500   -1.2990    0.0000 C   0  0  0  0  0  0  0  0  0  0  0  0
    3.7500   -1.2990    0.0000 O   0  0  0  0  0  0  0  0  0  0  0  0
    3.0000    0.0000    0.0000 C   0  0  0  0  0  0  0  0  0  0  0  0
    1.5000    0.0000    0.0000 C   0  0  0  0  0  0  0  0  0  0  0  0
    0.7500   -1.2990    0.0000 C   0  0  0  0  0  0  0  0  0  0  0  0
   -0.7500   -1.2990    0.0000 C   0  0  0  0  0  0  0  0  0  0  0  0
   -1.5000    0.0000    0.0000 C   0  0  0  0  0  0  0  0  0  0  0  0
   -3.0000    0.0000    0.0000 O   0  0  0  0  0  0  0  0  0  0  0  0
   -3.7500    1.2990    0.0000 C   0  0  0  0  0  0  0  0  0  0  0  0
   -0.7500    1.2990    0.0000 C   0  0  0  0  0  0  0  0  0  0  0  0
    0.7500    1.2990    0.0000 C   0  0  0  0  0  0  0  0  0  0  0  0
    8.2500   -1.2990    0.0000 O   0  0  0  0  0  0  0  0  0  0  0  0
    9.7500   -1.2990    0.0000 C   0  0  0  0  0  0  0  0  0  0  0  0
   10.5000    0.0000    0.0000 C   0  0  0  0  0  0  0  0  0  0  0  0
   12.0000    0.0000    0.0000 C   0  0  0  0  0  0  0  0  0  0  0  0
   12.7500    1.2990    0.0000 C   0  0  0  0  0  0  0  0  0  0  0  0
   14.2500    1.2990    0.0000 Br  0  0  0  0  0  0  0  0  0  0  0  0
  1  2  2  0
  2  3  1  0
  3  4  1  1
  4  5  1  0
  5  6  1  0
  6  7  1  0
  7  8  1  0
  8  9  1  0
  9 10  2  0
 10 11  1  0
 11 12  1  0
 12 13  1  0
 11 14  2  0
 14 15  1  0
  3 16  1  0
 16 17  1  0
 17 18  1  0
 18 19  1  0
 19 20  1  0
 20 21  1  0
 15  8  2  0
M  END
$$$$
3
     RDKit          2D

 16 16  0  0  0  0  0  0  0  0999 V2000
    9.7500   -3.8971    0.0000 C   0  0  0  0  0  0  0  0  0  0  0  0
    8.2500   -3.8971    0.0000 C   0  0  0  0  0  0  0  0  0  0  0  0
    7.5000   -2.5981    0.0000 C   0  0  0  0  0  0  0  0  0  0  0  0
    8.2500   -1.2990    0.0000 O   0  0  0  0  0  0  0  0  0  0  0  0
    6.0000   -2.5981    0.0000 C   0  0  0  0  0  0  0  0  0  0  0  0
    5.2500   -1.2990    0.0000 C   0  0  0  0  0  0  0  0  0  0  0  0
    3.7500   -1.2990    0.0000 O   0  0  0  0  0  0  0  0  0  0  0  0
    3.0000    0.0000    0.0000 C   0  0  0  0  0  0  0  0  0  0  0  0
    1.5000    0.0000    0.0000 C   0  0  0  0  0  0  0  0  0  0  0  0
    0.7500   -1.2990    0.0000 C   0  0  0  0  0  0  0  0  0  0  0  0
   -0.7500   -1.2990    0.0000 C   0  0  0  0  0  0  0  0  0  0  0  0
   -1.5000    0.0000    0.0000 C   0  0  0  0  0  0  0  0  0  0  0  0
   -3.0000    0.0000    0.0000 O   0  0  0  0  0  0  0  0  0  0  0  0
   -3.7500    1.2990    0.0000 C   0  0  0  0  0  0  0  0  0  0  0  0
   -0.7500    1.2990    0.0000 C   0  0  0  0  0  0  0  0  0  0  0  0
    0.7500    1.2990    0.0000 C   0  0  0  0  0  0  0  0  0  0  0  0
  1  2  2  0
  2  3  1  0
  3  4  1  1
  3  5  1  0
  5  6  1  0
  6  7  1  0
  7  8  1  0
  8  9  1  0
  9 10  1  0
 10 11  2  0
 11 12  1  0
 12 13  1  0
 13 14  1  0
 12 15  2  0
 15 16  1  0
 16  9  2  0
M  END
$$$$
2
     RDKit          2D

 15 16  0  0  0  0  0  0  0  0999 V2000
    3.7500   -1.2990    0.0000 C   0  0  0  0  0  0  0  0  0  0  0  0
    3.0000    0.0000    0.0000 O   0  0  0  0  0  0  0  0  0  0  0  0
    1.5000    0.0000    0.0000 C   0  0  0  0  0  0  0  0  0  0  0  0
    0.7500   -1.2990    0.0000 C   0  0  0  0  0  0  0  0  0  0  0  0
   -0.7500   -1.2990    0.0000 C   0  0  0  0  0  0  0  0  0  0  0  0
   -1.5000    0.0000    0.0000 C   0  0  0  0  0  0  0  0  0  0  0  0
   -3.0000    0.0000    0.0000 C   0  0  0  0  0  0  0  0  0  0  0  0
   -3.7500    1.2990    0.0000 O   0  0  0  0  0  0  0  0  0  0  0  0
   -5.2500    1.2990    0.0000 C   0  0  0  0  0  0  0  0  0  0  0  0
   -6.0000    2.5981    0.0000 C   0  0  0  0  0  0  0  0  0  0  0  0
   -7.5000    2.5981    0.0000 C   0  0  0  0  0  0  0  0  0  0  0  0
   -8.7990    1.8481    0.0000 C   0  0  0  0  0  0  0  0  0  0  0  0
   -8.7990    3.3481    0.0000 O   0  0  0  0  0  0  0  0  0  0  0  0
   -0.7500    1.2990    0.0000 C   0  0  0  0  0  0  0  0  0  0  0  0
    0.7500    1.2990    0.0000 C   0  0  0  0  0  0  0  0  0  0  0  0
  1  2  1  0
  2  3  1  0
  3  4  1  0
  4  5  2  0
  5  6  1  0
  6  7  1  0
  7  8  1  0
  8  9  1  0
  9 10  1  0
 11 10  1  6
 11 12  1  0
 12 13  1  0
  6 14  2  0
 14 15  1  0
 15  3  2  0
 13 11  1  0
M  END
$$$$
9
     RDKit          2D

 17 17  0  0  0  0  0  0  0  0999 V2000
   10.5000   -5.1962    0.0000 C   0  0  0  0  0  0  0  0  0  0  0  0
    9.7500   -3.8971    0.0000 C   0  0  0  0  0  0  0  0  0  0  0  0
    8.2500   -3.8971    0.0000 C   0  0  0  0  0  0  0  0  0  0  0  0
    7.5000   -2.5981    0.0000 C   0  0  0  0  0  0  0  0  0  0  0  0
    8.2500   -1.2990    0.0000 O   0  0  0  0  0  0  0  0  0  0  0  0
    6.0000   -2.5981    0.0000 C   0  0  0  0  0  0  0  0  0  0  0  0
    5.2500   -1.2990    0.0000 C   0  0  0  0  0  0  0  0  0  0  0  0
    3.7500   -1.2990    0.0000 O   0  0  0  0  0  0  0  0  0  0  0  0
    3.0000    0.0000    0.0000 C   0  0  0  0  0  0  0  0  0  0  0  0
    1.5000    0.0000    0.0000 C   0  0  0  0  0  0  0  0  0  0  0  0
    0.7500   -1.2990    0.0000 C   0  0  0  0  0  0  0  0  0  0  0  0
   -0.7500   -1.2990    0.0000 C   0  0  0  0  0  0  0  0  0  0  0  0
   -1.5000    0.0000    0.0000 C   0  0  0  0  0  0  0  0  0  0  0  0
   -3.0000    0.0000    0.0000 O   0  0  0  0  0  0  0  0  0  0  0  0
   -3.7500    1.2990    0.0000 C   0  0  0  0  0  0  0  0  0  0  0  0
   -0.7500    1.2990    0.0000 C   0  0  0  0  0  0  0  0  0  0  0  0
    0.7500    1.2990    0.0000 C   0  0  0  0  0  0  0  0  0  0  0  0
  1  2  2  0
  2  3  1  0
  3  4  1  0
  4  5  1  1
  4  6  1  0
  6  7  1  0
  7  8  1  0
  8  9  1  0
  9 10  1  0
 10 11  1  0
 11 12  2  0
 12 13  1  0
 13 14  1  0
 14 15  1  0
 13 16  2  0
 16 17  1  0
 17 10  2  0
M  END
$$$$
10
     RDKit          2D

 21 21  0  0  0  0  0  0  0  0999 V2000
   14.2500   -6.4952    0.0000 C   0  0  0  0  0  0  0  0  0  0  0  0
   12.7500   -6.4952    0.0000 O   0  0  0  0  0  0  0  0  0  0  0  0
   12.0000   -5.1962    0.0000 C   0  0  0  0  0  0  0  0  0  0  0  0
   12.7500   -3.8971    0.0000 O   0  0  0  0  0  0  0  0  0  0  0  0
   10.5000   -5.1962    0.0000 C   0  0  0  0  0  0  0  0  0  0  0  0
    9.7500   -3.8971    0.0000 C   0  0  0  0  0  0  0  0  0  0  0  0
    8.2500   -3.8971    0.0000 C   0  0  0  0  0  0  0  0  0  0  0  0
    7.5000   -2.5981    0.0000 C   0  0  0  0  0  0  0  0  0  0  0  0
    8.2500   -1.2990    0.0000 O   0  0  0  0  0  0  0  0  0  0  0  0
    6.0000   -2.5981    0.0000 C   0  0  0  0  0  0  0  0  0  0  0  0
    5.2500   -1.2990    0.0000 C   0  0  0  0  0  0  0  0  0  0  0  0
    3.7500   -1.2990    0.0000 O   0  0  0  0  0  0  0  0  0  0  0  0
    3.0000    0.0000    0.0000 C   0  0  0  0  0  0  0  0  0  0  0  0
    1.5000    0.0000    0.0000 C   0  0  0  0  0  0  0  0  0  0  0  0
    0.7500   -1.2990    0.0000 C   0  0  0  0  0  0  0  0  0  0  0  0
   -0.7500   -1.2990    0.0000 C   0  0  0  0  0  0  0  0  0  0  0  0
   -1.5000    0.0000    0.0000 C   0  0  0  0  0  0  0  0  0  0  0  0
   -3.0000    0.0000    0.0000 O   0  0  0  0  0  0  0  0  0  0  0  0
   -3.7500    1.2990    0.0000 C   0  0  0  0  0  0  0  0  0  0  0  0
   -0.7500    1.2990    0.0000 C   0  0  0  0  0  0  0  0  0  0  0  0
    0.7500    1.2990    0.0000 C   0  0  0  0  0  0  0  0  0  0  0  0
  1  2  1  0
  2  3  1  0
  3  4  2  0
  3  5  1  0
  5  6  2  0
  6  7  1  0
  7  8  1  0
  8  9  1  1
  8 10  1  0
 10 11  1  0
 11 12  1  0
 12 13  1  0
 13 14  1  0
 14 15  1  0
 15 16  2  0
 16 17  1  0
 17 18  1  0
 18 19  1  0
 17 20  2  0
 20 21  1  0
 21 14  2  0
M  END
$$$$
11a
     RDKit          2D

 22 23  0  0  0  0  0  0  0  0999 V2000
    6.2011  -12.1302    0.0000 C   0  0  0  0  0  0  0  0  0  0  0  0
    4.8308  -11.5201    0.0000 O   0  0  0  0  0  0  0  0  0  0  0  0
    4.6740  -10.0283    0.0000 C   0  0  0  0  0  0  0  0  0  0  0  0
    5.8875   -9.1467    0.0000 O   0  0  0  0  0  0  0  0  0  0  0  0
    3.3037   -9.4182    0.0000 C   0  0  0  0  0  0  0  0  0  0  0  0
    2.9918   -7.9510    0.0000 O   0  0  0  0  0  0  0  0  0  0  0  0
    1.5000   -7.7942    0.0000 C   0  0  0  0  0  0  0  0  0  0  0  0
    0.7500   -6.4952    0.0000 C   0  0  0  0  0  0  0  0  0  0  0  0
    1.5000   -5.1962    0.0000 C   0  0  0  0  0  0  0  0  0  0  0  0
    0.7500   -3.8971    0.0000 O   0  0  0  0  0  0  0  0  0  0  0  0
    1.5000   -2.5981    0.0000 C   0  0  0  0  0  0  0  0  0  0  0  0
    0.7500   -1.2990    0.0000 C   0  0  0  0  0  0  0  0  0  0  0  0
    1.5000    0.0000    0.0000 C   0  0  0  0  0  0  0  0  0  0  0  0
    0.7500    1.2990    0.0000 C   0  0  0  0  0  0  0  0  0  0  0  0
   -0.7500    1.2990    0.0000 C   0  0  0  0  0  0  0  0  0  0  0  0
   -1.5000    2.5981    0.0000 O   0  0  0  0  0  0  0  0  0  0  0  0
   -0.7500    3.8971    0.0000 C   0  0  0  0  0  0  0  0  0  0  0  0
   -1.5000    0.0000    0.0000 C   0  0  0  0  0  0  0  0  0  0  0  0
   -0.7500   -1.2990    0.0000 C   0  0  0  0  0  0  0  0  0  0  0  0
    0.8899   -9.1645    0.0000 C   0  0  0  0  0  0  0  0  0  0  0  0
    2.0046  -10.1682    0.0000 C   0  0  0  0  0  0  0  0  0  0  0  0
    1.8478  -11.6600    0.0000 O   0  0  0  0  0  0  0  0  0  0  0  0
  1  2  1  0
  2  3  1  0
  3  4  2  0
  5  3  1  6
  5  6  1  0
  6  7  1  0
  7  8  1  6
  8  9  1  0
  9 10  1  0
 10 11  1  0
 11 12  1  0
 12 13  1  0
 13 14  2  0
 14 15  1  0
 15 16  1  0
 16 17  1  0
 15 18  2  0
 18 19  1  0
  7 20  1  0
 20 21  1  0
 21 22  1  6
 21  5  1  0
 19 12  2  0
M  END
$$$$
10-dihydroxy-mesylate
     RDKit          2D

 27 27  0  0  0  0  0  0  0  0999 V2000
   14.2500   -6.4952    0.0000 C   0  0  0  0  0  0  0  0  0  0  0  0
   12.7500   -6.4952    0.0000 O   0  0  0  0  0  0  0  0  0  0  0  0
   12.0000   -5.1962    0.0000 C   0  0  0  0  0  0  0  0  0  0  0  0
   12.7500   -3.8971    0.0000 O   0  0  0  0  0  0  0  0  0  0  0  0
   10.5000   -5.1962    0.0000 C   0  0  0  0  0  0  0  0  0  0  0  0
    9.7500   -6.4952    0.0000 O   0  0  0  0  0  0  0  0  0  0  0  0
    9.7500   -3.8971    0.0000 C   0  0  0  0  0  0  0  0  0  0  0  0
   10.5000   -2.5981    0.0000 O   0  0  0  0  0  0  0  0  0  0  0  0
    8.2500   -3.8971    0.0000 C   0  0  0  0  0  0  0  0  0  0  0  0
    7.5000   -2.5981    0.0000 C   0  0  0  0  0  0  0  0  0  0  0  0
    6.0000   -2.5981    0.0000 C   0  0  0  0  0  0  0  0  0  0  0  0
    5.2500   -1.2990    0.0000 C   0  0  0  0  0  0  0  0  0  0  0  0
    3.7500   -1.2990    0.0000 O   0  0  0  0  0  0  0  0  0  0  0  0
    3.0000    0.0000    0.0000 C   0  0  0  0  0  0  0  0  0  0  0  0
    1.5000    0.0000    0.0000 C   0  0  0  0  0  0  0  0  0  0  0  0
    0.7500   -1.2990    0.0000 C   0  0  0  0  0  0  0  0  0  0  0  0
   -0.7500   -1.2990    0.0000 C   0  0  0  0  0  0  0  0  0  0  0  0
   -1.5000    0.0000    0.0000 C   0  0  0  0  0  0  0  0  0  0  0  0
   -3.0000    0.0000    0.0000 O   0  0  0  0  0  0  0  0  0  0  0  0
   -3.7500    1.2990    0.0000 C   0  0  0  0  0  0  0  0  0  0  0  0
   -0.7500    1.2990    0.0000 C   0  0  0  0  0  0  0  0  0  0  0  0
    0.7500    1.2990    0.0000 C   0  0  0  0  0  0  0  0  0  0  0  0
    8.2500   -1.2990    0.0000 O   0  0  0  0  0  0  0  0  0  0  0  0
    7.5000    0.0000    0.0000 S   0  0  0  0  0  0  0  0  0  0  0  0
    6.7500    1.2990    0.0000 C   0  0  0  0  0  0  0  0  0  0  0  0
    8.7990    0.7500    0.0000 O   0  0  0  0  0  0  0  0  0  0  0  0
    6.2010   -0.7500    0.0000 O   0  0  0  0  0  0  0  0  0  0  0  0
  1  2  1  0
  2  3  1  0
  3  4  2  0
  3  5  1  0
  5  6  1  1
  5  7  1  0
  7  8  1  1
  7  9  1  0
 10  9  1  1
 10 11  1  0
 11 12  1  0
 12 13  1  0
 13 14  1  0
 14 15  1  0
 15 16  1  0
 16 17  2  0
 17 18  1  0
 18 19  1  0
 19 20  1  0
 18 21  2  0
 21 22  1  0
 10 23  1  0
 23 24  1  0
 24 25  1  0
 24 26  2  0
 24 27  2  0
 22 15  2  0
M  END
$$$$
10-mesylate
     RDKit          2D

 25 25  0  0  0  0  0  0  0  0999 V2000
   14.2500   -6.4952    0.0000 C   0  0  0  0  0  0  0  0  0  0  0  0
   12.7500   -6.4952    0.0000 O   0  0  0  0  0  0  0  0  0  0  0  0
   12.0000   -5.1962    0.0000 C   0  0  0  0  0  0  0  0  0  0  0  0
   12.7500   -3.8971    0.0000 O   0  0  0  0  0  0  0  0  0  0  0  0
   10.5000   -5.1962    0.0000 C   0  0  0  0  0  0  0  0  0  0  0  0
    9.7500   -3.8971    0.0000 C   0  0  0  0  0  0  0  0  0  0  0  0
    8.2500   -3.8971    0.0000 C   0  0  0  0  0  0  0  0  0  0  0  0
    7.5000   -2.5981    0.0000 C   0  0  0  0  0  0  0  0  0  0  0  0
    6.0000   -2.5981    0.0000 C   0  0  0  0  0  0  0  0  0  0  0  0
    5.2500   -1.2990    0.0000 C   0  0  0  0  0  0  0  0  0  0  0  0
    3.7500   -1.2990    0.0000 O   0  0  0  0  0  0  0  0  0  0  0  0
    3.0000    0.0000    0.0000 C   0  0  0  0  0  0  0  0  0  0  0  0
    1.5000    0.0000    0.0000 C   0  0  0  0  0  0  0  0  0  0  0  0
    0.7500   -1.2990    0.0000 C   0  0  0  0  0  0  0  0  0  0  0  0
   -0.7500   -1.2990    0.0000 C   0  0  0  0  0  0  0  0  0  0  0  0
   -1.5000    0.0000    0.0000 C   0  0  0  0  0  0  0  0  0  0  0  0
   -3.0000    0.0000    0.0000 O   0  0  0  0  0  0  0  0  0  0  0  0
   -3.7500    1.2990    0.0000 C   0  0  0  0  0  0  0  0  0  0  0  0
   -0.7500    1.2990    0.0000 C   0  0  0  0  0  0  0  0  0  0  0  0
    0.7500    1.2990    0.0000 C   0  0  0  0  0  0  0  0  0  0  0  0
    8.2500   -1.2990    0.0000 O   0  0  0  0  0  0  0  0  0  0  0  0
    9.7500   -1.2990    0.0000 S   0  0  0  0  0  0  0  0  0  0  0  0
   11.2500   -1.2990    0.0000 C   0  0  0  0  0  0  0  0  0  0  0  0
    9.7500   -2.7990    0.0000 O   0  0  0  0  0  0  0  0  0  0  0  0
    9.7500    0.2010    0.0000 O   0  0  0  0  0  0  0  0  0  0  0  0
  1  2  1  0
  2  3  1  0
  3  4  2  0
  3  5  1  0
  5  6  2  0
  6  7  1  0
  8  7  1  1
  8  9  1  0
  9 10  1  0
 10 11  1  0
 11 12  1  0
 12 13  1  0
 13 14  1  0
 14 15  2  0
 15 16  1  0
 16 17  1  0
 17 18  1  0
 16 19  2  0
 19 20  1  0
  8 21  1  0
 21 22  1  0
 22 23  1  0
 22 24  2  0
 22 25  2  0
 20 13  2  0
M  END
$$$$
24
     RDKit          2D

  6  5  0  0  0  0  0  0  0  0999 V2000
    0.0000    0.0000    0.0000 C   0  0  0  0  0  0  0  0  0  0  0  0
    1.2990    0.7500    0.0000 C   0  0  0  0  0  0  0  0  0  0  0  0
    2.5981    1.5000    0.0000 C   0  0  0  0  0  0  0  0  0  0  0  0
    3.8971    2.2500    0.0000 C   0  0  0  0  0  0  0  0  0  0  0  0
    5.1962    1.5000    0.0000 C   0  0  0  0  0  0  0  0  0  0  0  0
    3.8971    3.7500    0.0000 O   0  0  0  0  0  0  0  0  0  0  0  0
  1  2  1  0
  2  3  3  0
  3  4  1  0
  4  5  1  0
  4  6  2  0
M  END
$$$$
TMS-propyne
     RDKit          2D

  7  6  0  0  0  0  0  0  0  0999 V2000
    0.0000    0.0000    0.0000 C   0  0  0  0  0  0  0  0  0  0  0  0
    1.2990    0.7500    0.0000 C   0  0  0  0  0  0  0  0  0  0  0  0
    2.5981    1.5000    0.0000 C   0  0  0  0  0  0  0  0  0  0  0  0
    3.8971    2.2500    0.0000 Si  0  0  0  0  0  4  0  0  0  0  0  0
    4.6471    0.9510    0.0000 C   0  0  0  0  0  0  0  0  0  0  0  0
    3.1471    3.5490    0.0000 C   0  0  0  0  0  0  0  0  0  0  0  0
    5.1962    3.0000    0.0000 C   0  0  0  0  0  0  0  0  0  0  0  0
  1  2  1  0
  2  3  3  0
  3  4  1  0
  4  5  1  0
  4  6  1  0
  4  7  1  0
M  END
$$$$
acetyl-chloride
     RDKit          2D

  4  3  0  0  0  0  0  0  0  0999 V2000
    0.0000    0.0000    0.0000 C   0  0  0  0  0  0  0  0  0  0  0  0
    1.2990    0.7500    0.0000 C   0  0  0  0  0  0  0  0  0  0  0  0
    2.5981   -0.0000    0.0000 O   0  0  0  0  0  0  0  0  0  0  0  0
    1.2990    2.2500    0.0000 Cl  0  0  0  0  0  0  0  0  0  0  0  0
  1  2  1  0
  2  3  2  0
  2  4  1  0
M  END
$$$$
L-aspartic-acid
     RDKit          2D

  9  8  0  0  0  0  0  0  0  0999 V2000
    1.2990    2.2500    0.0000 N   0  0  0  0  0  0  0  0  0  0  0  0
    1.2990    0.7500    0.0000 C   0  0  0  0  0  0  0  0  0  0  0  0
    0.0000    0.0000    0.0000 C   0  0  0  0  0  0  0  0  0  0  0  0
   -1.2990    0.7500    0.0000 C   0  0  0  0  0  0  0  0  0  0  0  0
   -1.2990    2.2500    0.0000 O   0  0  0  0  0  0  0  0  0  0  0  0
   -2.5981    0.0000    0.0000 O   0  0  0  0  0  0  0  0  0  0  0  0
    2.5981   -0.0000    0.0000 C   0  0  0  0  0  0  0  0  0  0  0  0
    2.5981   -1.5000    0.0000 O   0  0  0  0  0  0  0  0  0  0  0  0
    3.8971    0.7500    0.0000 O   0  0  0  0  0  0  0  0  0  0  0  0
  2  1  1  6
  2  3  1  0
  3  4  1  0
  4  5  2  0
  4  6  1  0
  2  7  1  0
  7  8  2  0
  7  9  1  0
M  END
$$$$
