37
     RDKit          2D

 11 11  0  0  0  0  0  0  0  0999 V2000
    3.1935   -3.4746    0.0000 C   0  0  0  0  0  0  0  0  0  0  0  0
    2.0788   -2.4709    0.0000 O   0  0  0  0  0  0  0  0  0  0  0  0
    2.3907   -1.0037    0.0000 C   0  0  0  0  0  0  0  0  0  0  0  0
    3.8173   -0.5402    0.0000 O   0  0  0  0  0  0  0  0  0  0  0  0
    1.2760    0.0000    0.0000 C   0  0  0  0  0  0  0  0  0  0  0  0
    2.3907    1.0037    0.0000 C   0  0  0  0  0  0  0  0  0  0  0  0
    0.3943    1.2135    0.0000 C   0  0  0  0  0  0  0  0  0  0  0  0
   -1.0323    0.7500    0.0000 C   0  0  0  0  0  0  0  0  0  0  0  0
   -1.0323   -0.7500    0.0000 C   0  0  0  0  0  0  0  0  0  0  0  0
    0.3943   -1.2135    0.0000 C   0  0  0  0  0  0  0  0  0  0  0  0
    0.8578   -2.6401    0.0000 O   0  0  0  0  0  0  0  0  0  0  0  0
  1  2  1  0
  2  3  1  0
  3  4  2  0
  3  5  1  0
  5  6  1  1
  5  7  1  0
  7  8  1  0
  8  9  1  0
  9 10  1  0
 10 11  2  0
 10  5  1  0
M  END
$$$$
38
     RDKit          2D

 16 16  0  0  0  0  0  0  0  0999 V2000
    2.9769    3.3481    0.0000 C   0  0  0  0  0  0  0  0  0  0  0  0
    4.2760    2.5981    0.0000 C   0  0  0  0  0  0  0  0  0  0  0  0
    5.5750    1.8481    0.0000 C   0  0  0  0  0  0  0  0  0  0  0  0
    5.0260    3.8971    0.0000 C   0  0  0  0  0  0  0  0  0  0  0  0
    3.5260    1.2990    0.0000 Si  0  0  0  0  0  4  0  0  0  0  0  0
    4.8250    0.5490    0.0000 C   0  0  0  0  0  0  0  0  0  0  0  0
    2.2269    2.0490    0.0000 C   0  0  0  0  0  0  0  0  0  0  0  0
    2.7760    0.0000    0.0000 O   0  0  0  0  0  0  0  0  0  0  0  0
    1.2760    0.0000    0.0000 C   0  0  0  0  0  0  0  0  0  0  0  0
    0.3943    1.2135    0.0000 C   0  0  0  0  0  0  0  0  0  0  0  0
   -1.0323    0.7500    0.0000 C   0  0  0  0  0  0  0  0  0  0  0  0
   -1.0323   -0.7500    0.0000 C   0  0  0  0  0  0  0  0  0  0  0  0
    0.3943   -1.2135    0.0000 C   0  0  0  0  0  0  0  0  0  0  0  0
    1.6933   -1.9635    0.0000 C   0  0  0  0  0  0  0  0  0  0  0  0
   -0.2158   -2.5838    0.0000 C   0  0  0  0  0  0  0  0  0  0  0  0
   -1.7076   -2.7406    0.0000 O   0  0  0  0  0  0  0  0  0  0  0  0
  1  2  1  0
  2  3  1  0
  2  4  1  0
  2  5  1  0
  5  6  1  0
  5  7  1  0
  5  8  1  0
  8  9  1  0
  9 10  2  0
 10 11  1  0
 11 12  1  0
 12 13  1  0
 13 14  1  6
 13 15  1  0
 15 16  1  0
 13  9  1  0
M  END
$$$$
39
     RDKit          2D

 33 35  0  0  0  0  0  0  0  0999 V2000
    1.4846  -10.1597    0.0000 C   0  0  0  0  0  0  0  0  0  0  0  0
    2.7836   -9.4097    0.0000 C   0  0  0  0  0  0  0  0  0  0  0  0
    4.0826   -8.6597    0.0000 C   0  0  0  0  0  0  0  0  0  0  0  0
    3.5336  -10.7087    0.0000 C   0  0  0  0  0  0  0  0  0  0  0  0
    2.0336   -8.1106    0.0000 Si  0  0  0  0  0  4  0  0  0  0  0  0
    3.3326   -7.3606    0.0000 C   0  0  0  0  0  0  0  0  0  0  0  0
    0.7346   -8.8606    0.0000 C   0  0  0  0  0  0  0  0  0  0  0  0
    1.2836   -6.8116    0.0000 O   0  0  0  0  0  0  0  0  0  0  0  0
   -0.2164   -6.8116    0.0000 C   0  0  0  0  0  0  0  0  0  0  0  0
   -1.0981   -8.0251    0.0000 C   0  0  0  0  0  0  0  0  0  0  0  0
   -2.5247   -7.5616    0.0000 C   0  0  0  0  0  0  0  0  0  0  0  0
   -2.5247   -6.0616    0.0000 C   0  0  0  0  0  0  0  0  0  0  0  0
   -1.0981   -5.5981    0.0000 C   0  0  0  0  0  0  0  0  0  0  0  0
   -1.7082   -4.2278    0.0000 C   0  0  0  0  0  0  0  0  0  0  0  0
    0.2010   -4.8481    0.0000 C   0  0  0  0  0  0  0  0  0  0  0  0
    0.2010   -3.3481    0.0000 O   0  0  0  0  0  0  0  0  0  0  0  0
    1.5000   -2.5981    0.0000 Si  0  0  0  0  0  4  0  0  0  0  0  0
    0.7500   -1.2990    0.0000 C   0  0  0  0  0  0  0  0  0  0  0  0
    1.5000    0.0000    0.0000 C   0  0  0  0  0  0  0  0  0  0  0  0
    0.7500    1.2990    0.0000 C   0  0  0  0  0  0  0  0  0  0  0  0
   -0.7500    1.2990    0.0000 C   0  0  0  0  0  0  0  0  0  0  0  0
   -1.5000    0.0000    0.0000 C   0  0  0  0  0  0  0  0  0  0  0  0
   -0.7500   -1.2990    0.0000 C   0  0  0  0  0  0  0  0  0  0  0  0
    2.7990   -1.8481    0.0000 C   0  0  0  0  0  0  0  0  0  0  0  0
    4.0981   -2.5981    0.0000 C   0  0  0  0  0  0  0  0  0  0  0  0
    5.3971   -1.8481    0.0000 C   0  0  0  0  0  0  0  0  0  0  0  0
    5.3971   -0.3481    0.0000 C   0  0  0  0  0  0  0  0  0  0  0  0
    4.0981    0.4019    0.0000 C   0  0  0  0  0  0  0  0  0  0  0  0
    2.7990   -0.3481    0.0000 C   0  0  0  0  0  0  0  0  0  0  0  0
    2.2500   -3.8971    0.0000 C   0  0  0  0  0  0  0  0  0  0  0  0
    3.5490   -3.1471    0.0000 C   0  0  0  0  0  0  0  0  0  0  0  0
    0.9510   -4.6471    0.0000 C   0  0  0  0  0  0  0  0  0  0  0  0
    3.0000   -5.1962    0.0000 C   0  0  0  0  0  0  0  0  0  0  0  0
  1  2  1  0
  2  3  1  0
  2  4  1  0
  2  5  1  0
  5  6  1  0
  5  7  1  0
  5  8  1  0
  8  9  1  0
  9 10  2  0
 10 11  1  0
 11 12  1  0
 12 13  1  0
 13 14  1  1
 13 15  1  0
 15 16  1  0
 16 17  1  0
 17 18  1  0
 18 19  2  0
 19 20  1  0
 20 21  2  0
 21 22  1  0
 22 23  2  0
 17 24  1  0
 24 25  2  0
 25 26  1  0
 26 27  2  0
 27 28  1  0
 28 29  2  0
 17 30  1  0
 30 31  1  0
 30 32  1  0
 30 33  1  0
 13  9  1  0
 23 18  1  0
 29 24  1  0
M  END
$$$$
chloroacetonitrile
     RDKit          2D

  4  3  0  0  0  0  0  0  0  0999 V2000
   -0.0000   -1.5000    0.0000 N   0  0  0  0  0  0  0  0  0  0  0  0
    0.0000    0.0000    0.0000 C   0  0  0  0  0  0  0  0  0  0  0  0
    0.0000    1.5000    0.0000 C   0  0  0  0  0  0  0  0  0  0  0  0
    1.2990    2.2500    0.0000 Cl  0  0  0  0  0  0  0  0  0  0  0  0
  1  2  3  0
  2  3  1  0
  3  4  1  0
M  END
$$$$
41
     RDKit          2D

 36 38  0  0  0  0  0  0  0  0999 V2000
    1.4846  -10.1597    0.0000 C   0  0  0  0  0  0  0  0  0  0  0  0
    2.7836   -9.4097    0.0000 C   0  0  0  0  0  0  0  0  0  0  0  0
    4.0826   -8.6597    0.0000 C   0  0  0  0  0  0  0  0  0  0  0  0
    3.5336  -10.7087    0.0000 C   0  0  0  0  0  0  0  0  0  0  0  0
    2.0336   -8.1106    0.0000 Si  0  0  0  0  0  4  0  0  0  0  0  0
    3.3326   -7.3606    0.0000 C   0  0  0  0  0  0  0  0  0  0  0  0
    0.7346   -8.8606    0.0000 C   0  0  0  0  0  0  0  0  0  0  0  0
    1.2836   -6.8116    0.0000 O   0  0  0  0  0  0  0  0  0  0  0  0
   -0.2164   -6.8116    0.0000 C   0  0  0  0  0  0  0  0  0  0  0  0
   -1.0981   -8.0251    0.0000 C   0  0  0  0  0  0  0  0  0  0  0  0
   -0.6346   -9.4517    0.0000 C   0  0  0  0  0  0  0  0  0  0  0  0
   -1.6382  -10.5664    0.0000 C   0  0  0  0  0  0  0  0  0  0  0  0
   -2.6419  -11.6811    0.0000 N   0  0  0  0  0  0  0  0  0  0  0  0
   -2.5247   -7.5616    0.0000 C   0  0  0  0  0  0  0  0  0  0  0  0
   -2.5247   -6.0616    0.0000 C   0  0  0  0  0  0  0  0  0  0  0  0
   -1.0981   -5.5981    0.0000 C   0  0  0  0  0  0  0  0  0  0  0  0
   -1.7082   -4.2278    0.0000 C   0  0  0  0  0  0  0  0  0  0  0  0
    0.2010   -4.8481    0.0000 C   0  0  0  0  0  0  0  0  0  0  0  0
    0.2010   -3.3481    0.0000 O   0  0  0  0  0  0  0  0  0  0  0  0
    1.5000   -2.5981    0.0000 Si  0  0  0  0  0  4  0  0  0  0  0  0
    0.7500   -1.2990    0.0000 C   0  0  0  0  0  0  0  0  0  0  0  0
    1.5000    0.0000    0.0000 C   0  0  0  0  0  0  0  0  0  0  0  0
    0.7500    1.2990    0.0000 C   0  0  0  0  0  0  0  0  0  0  0  0
   -0.7500    1.2990    0.0000 C   0  0  0  0  0  0  0  0  0  0  0  0
   -1.5000    0.0000    0.0000 C   0  0  0  0  0  0  0  0  0  0  0  0
   -0.7500   -1.2990    0.0000 C   0  0  0  0  0  0  0  0  0  0  0  0
    2.7990   -1.8481    0.0000 C   0  0  0  0  0  0  0  0  0  0  0  0
    4.0981   -2.5981    0.0000 C   0  0  0  0  0  0  0  0  0  0  0  0
    5.3971   -1.8481    0.0000 C   0  0  0  0  0  0  0  0  0  0  0  0
    5.3971   -0.3481    0.0000 C   0  0  0  0  0  0  0  0  0  0  0  0
    4.0981    0.4019    0.0000 C   0  0  0  0  0  0  0  0  0  0  0  0
    2.7990   -0.3481    0.0000 C   0  0  0  0  0  0  0  0  0  0  0  0
    2.2500   -3.8971    0.0000 C   0  0  0  0  0  0  0  0  0  0  0  0
    3.5490   -3.1471    0.0000 C   0  0  0  0  0  0  0  0  0  0  0  0
    0.9510   -4.6471    0.0000 C   0  0  0  0  0  0  0  0  0  0  0  0
    3.0000   -5.1962    0.0000 C   0  0  0  0  0  0  0  0  0  0  0  0
  1  2  1  0
  2  3  1  0
  2  4  1  0
  2  5  1  0
  5  6  1  0
  5  7  1  0
  5  8  1  0
  8  9  1  0
  9 10  2  0
 10 11  1  0
 11 12  1  0
 12 13  3  0
 10 14  1  0
 14 15  1  0
 15 16  1  0
 16 17  1  1
 16 18  1  0
 18 19  1  0
 19 20  1  0
 20 21  1  0
 21 22  2  0
 22 23  1  0
 23 24  2  0
 24 25  1  0
 25 26  2  0
 20 27  1  0
 27 28  2  0
 28 29  1  0
 29 30  2  0
 30 31  1  0
 31 32  2  0
 20 33  1  0
 33 34  1  0
 33 35  1  0
 33 36  1  0
 16  9  1  0
 26 21  1  0
 32 27  1  0
M  END
$$$$
42
     RDKit          2D

 42 45  0  0  0  0  0  0  0  0999 V2000
   -7.6923   -8.1047    0.0000 C   0  0  0  0  0  0  0  0  0  0  0  0
   -6.3220   -8.7149    0.0000 N   0  0  0  0  0  0  0  0  0  0  0  0
   -5.1085   -7.8332    0.0000 C   0  0  0  0  0  0  0  0  0  0  0  0
   -3.7382   -8.4433    0.0000 C   0  0  0  0  0  0  0  0  0  0  0  0
   -2.5247   -7.5616    0.0000 C   0  0  0  0  0  0  0  0  0  0  0  0
   -1.0981   -8.0251    0.0000 C   0  0  0  0  0  0  0  0  0  0  0  0
   -0.2164   -6.8116    0.0000 C   0  0  0  0  0  0  0  0  0  0  0  0
   -1.0981   -5.5981    0.0000 C   0  0  0  0  0  0  0  0  0  0  0  0
   -1.7082   -4.2278    0.0000 C   0  0  0  0  0  0  0  0  0  0  0  0
    0.2010   -4.8481    0.0000 C   0  0  0  0  0  0  0  0  0  0  0  0
    0.2010   -3.3481    0.0000 O   0  0  0  0  0  0  0  0  0  0  0  0
    1.5000   -2.5981    0.0000 Si  0  0  0  0  0  4  0  0  0  0  0  0
    0.7500   -1.2990    0.0000 C   0  0  0  0  0  0  0  0  0  0  0  0
    1.5000    0.0000    0.0000 C   0  0  0  0  0  0  0  0  0  0  0  0
    0.7500    1.2990    0.0000 C   0  0  0  0  0  0  0  0  0  0  0  0
   -0.7500    1.2990    0.0000 C   0  0  0  0  0  0  0  0  0  0  0  0
   -1.5000    0.0000    0.0000 C   0  0  0  0  0  0  0  0  0  0  0  0
   -0.7500   -1.2990    0.0000 C   0  0  0  0  0  0  0  0  0  0  0  0
    2.7990   -1.8481    0.0000 C   0  0  0  0  0  0  0  0  0  0  0  0
    4.0981   -2.5981    0.0000 C   0  0  0  0  0  0  0  0  0  0  0  0
    5.3971   -1.8481    0.0000 C   0  0  0  0  0  0  0  0  0  0  0  0
    5.3971   -0.3481    0.0000 C   0  0  0  0  0  0  0  0  0  0  0  0
    4.0981    0.4019    0.0000 C   0  0  0  0  0  0  0  0  0  0  0  0
    2.7990   -0.3481    0.0000 C   0  0  0  0  0  0  0  0  0  0  0  0
    2.2500   -3.8971    0.0000 C   0  0  0  0  0  0  0  0  0  0  0  0
    3.5490   -3.1471    0.0000 C   0  0  0  0  0  0  0  0  0  0  0  0
    0.9510   -4.6471    0.0000 C   0  0  0  0  0  0  0  0  0  0  0  0
    3.0000   -5.1962    0.0000 C   0  0  0  0  0  0  0  0  0  0  0  0
   -2.5247   -6.0616    0.0000 C   0  0  0  0  0  0  0  0  0  0  0  0
   -3.7382   -5.1799    0.0000 O   0  0  0  0  0  0  0  0  0  0  0  0
   -6.1652  -10.2066    0.0000 S   0  0  0  0  0  0  0  0  0  0  0  0
   -4.6735  -10.0498    0.0000 O   0  0  0  0  0  0  0  0  0  0  0  0
   -7.6570  -10.3634    0.0000 O   0  0  0  0  0  0  0  0  0  0  0  0
   -6.0084  -11.6984    0.0000 C   0  0  0  0  0  0  0  0  0  0  0  0
   -7.2220  -12.5801    0.0000 C   0  0  0  0  0  0  0  0  0  0  0  0
   -7.0652  -14.0719    0.0000 C   0  0  0  0  0  0  0  0  0  0  0  0
   -5.6949  -14.6820    0.0000 C   0  0  0  0  0  0  0  0  0  0  0  0
   -5.5381  -16.1738    0.0000 N   0  0  0  0  0  0  0  0  0  0  0  0
   -4.1677  -16.7839    0.0000 O   0  0  0  0  0  0  0  0  0  0  0  0
   -6.7516  -17.0554    0.0000 O   0  0  0  0  0  0  0  0  0  0  0  0
   -4.4813  -13.8003    0.0000 C   0  0  0  0  0  0  0  0  0  0  0  0
   -4.6381  -12.3085    0.0000 C   0  0  0  0  0  0  0  0  0  0  0  0
  1  2  1  0
  2  3  1  0
  3  4  1  0
  4  5  1  0
  5  6  1  0
  6  7  1  0
  7  8  1  0
  8  9  1  6
  8 10  1  0
 10 11  1  0
 11 12  1  0
 12 13  1  0
 13 14  2  0
 14 15  1  0
 15 16  2  0
 16 17  1  0
 17 18  2  0
 12 19  1  0
 19 20  2  0
 20 21  1  0
 21 22  2  0
 22 23  1  0
 23 24  2  0
 12 25  1  0
 25 26  1  0
 25 27  1  0
 25 28  1  0
  8 29  1  0
 29 30  2  0
  2 31  1  0
 31 32  2  0
 31 33  2  0
 31 34  1  0
 34 35  1  0
 35 36  2  0
 36 37  1  0
 37 38  1  0
 38 39  2  0
 38 40  1  0
 37 41  2  0
 41 42  1  0
 29  5  1  0
 42 34  2  0
 18 13  1  0
 24 19  1  0
M  CHG  2  38   1  40  -1
M  END
$$$$
27
     RDKit          2D

 10 10  0  0  0  0  0  0  0  0999 V2000
    3.7500   -1.2990    0.0000 C   0  0  0  0  0  0  0  0  0  0  0  0
    3.0000    0.0000    0.0000 O   0  0  0  0  0  0  0  0  0  0  0  0
    1.5000    0.0000    0.0000 C   0  0  0  0  0  0  0  0  0  0  0  0
    0.7500   -1.2990    0.0000 C   0  0  0  0  0  0  0  0  0  0  0  0
   -0.7500   -1.2990    0.0000 C   0  0  0  0  0  0  0  0  0  0  0  0
   -1.5000    0.0000    0.0000 C   0  0  0  0  0  0  0  0  0  0  0  0
   -3.0000    0.0000    0.0000 N   0  0  0  0  0  0  0  0  0  0  0  0
   -3.7500    1.2990    0.0000 N   0  0  0  0  0  0  0  0  0  0  0  0
   -0.7500    1.2990    0.0000 C   0  0  0  0  0  0  0  0  0  0  0  0
    0.7500    1.2990    0.0000 C   0  0  0  0  0  0  0  0  0  0  0  0
  1  2  1  0
  2  3  1  0
  3  4  1  0
  4  5  2  0
  5  6  1  0
  6  7  1  0
  7  8  1  0
  6  9  2  0
  9 10  1  0
 10  3  2  0
M  END
$$$$
44
     RDKit          2D

 50 55  0  0  0  0  0  0  0  0999 V2000
    3.7500   -1.2990    0.0000 C   0  0  0  0  0  0  0  0  0  0  0  0
    3.0000    0.0000    0.0000 O   0  0  0  0  0  0  0  0  0  0  0  0
    1.5000    0.0000    0.0000 C   0  0  0  0  0  0  0  0  0  0  0  0
    0.7500   -1.2990    0.0000 C   0  0  0  0  0  0  0  0  0  0  0  0
   -0.7500   -1.2990    0.0000 C   0  0  0  0  0  0  0  0  0  0  0  0
   -1.5000    0.0000    0.0000 C   0  0  0  0  0  0  0  0  0  0  0  0
   -0.7500    1.2990    0.0000 C   0  0  0  0  0  0  0  0  0  0  0  0
    0.7500    1.2990    0.0000 C   0  0  0  0  0  0  0  0  0  0  0  0
   -1.7537    2.4138    0.0000 C   0  0  0  0  0  0  0  0  0  0  0  0
   -0.3834    3.0239    0.0000 C   0  0  0  0  0  0  0  0  0  0  0  0
   -0.2266    4.5156    0.0000 C   0  0  0  0  0  0  0  0  0  0  0  0
    1.1437    5.1257    0.0000 N   0  0  0  0  0  0  0  0  0  0  0  0
    1.3005    6.6175    0.0000 C   0  0  0  0  0  0  0  0  0  0  0  0
    2.3573    4.2441    0.0000 S   0  0  0  0  0  0  0  0  0  0  0  0
    1.4756    3.0305    0.0000 O   0  0  0  0  0  0  0  0  0  0  0  0
    3.2389    5.4576    0.0000 O   0  0  0  0  0  0  0  0  0  0  0  0
    3.5708    3.3624    0.0000 C   0  0  0  0  0  0  0  0  0  0  0  0
    3.4140    1.8706    0.0000 C   0  0  0  0  0  0  0  0  0  0  0  0
    4.6275    0.9889    0.0000 C   0  0  0  0  0  0  0  0  0  0  0  0
    5.9978    1.5990    0.0000 C   0  0  0  0  0  0  0  0  0  0  0  0
    7.2114    0.7174    0.0000 N   0  0  0  0  0  0  0  0  0  0  0  0
    8.5817    1.3275    0.0000 O   0  0  0  0  0  0  0  0  0  0  0  0
    7.0546   -0.7744    0.0000 O   0  0  0  0  0  0  0  0  0  0  0  0
    6.1546    3.0908    0.0000 C   0  0  0  0  0  0  0  0  0  0  0  0
    4.9411    3.9725    0.0000 C   0  0  0  0  0  0  0  0  0  0  0  0
   -1.9105    3.9055    0.0000 C   0  0  0  0  0  0  0  0  0  0  0  0
   -3.3777    4.2174    0.0000 C   0  0  0  0  0  0  0  0  0  0  0  0
   -4.1277    2.9184    0.0000 C   0  0  0  0  0  0  0  0  0  0  0  0
   -5.3412    3.8000    0.0000 C   0  0  0  0  0  0  0  0  0  0  0  0
   -5.1314    1.8037    0.0000 C   0  0  0  0  0  0  0  0  0  0  0  0
   -6.5986    2.1155    0.0000 O   0  0  0  0  0  0  0  0  0  0  0  0
   -7.6023    1.0008    0.0000 Si  0  0  0  0  0  4  0  0  0  0  0  0
   -6.4876   -0.0029    0.0000 C   0  0  0  0  0  0  0  0  0  0  0  0
   -6.7995   -1.4701    0.0000 C   0  0  0  0  0  0  0  0  0  0  0  0
   -5.6848   -2.4738    0.0000 C   0  0  0  0  0  0  0  0  0  0  0  0
   -4.2582   -2.0103    0.0000 C   0  0  0  0  0  0  0  0  0  0  0  0
   -3.9463   -0.5431    0.0000 C   0  0  0  0  0  0  0  0  0  0  0  0
   -5.0610    0.4606    0.0000 C   0  0  0  0  0  0  0  0  0  0  0  0
   -8.6060   -0.1139    0.0000 C   0  0  0  0  0  0  0  0  0  0  0  0
  -10.0732    0.1980    0.0000 C   0  0  0  0  0  0  0  0  0  0  0  0
  -11.0769   -0.9168    0.0000 C   0  0  0  0  0  0  0  0  0  0  0  0
  -10.6134   -2.3434    0.0000 C   0  0  0  0  0  0  0  0  0  0  0  0
   -9.1462   -2.6552    0.0000 C   0  0  0  0  0  0  0  0  0  0  0  0
   -8.1425   -1.5405    0.0000 C   0  0  0  0  0  0  0  0  0  0  0  0
   -8.7170    2.0045    0.0000 C   0  0  0  0  0  0  0  0  0  0  0  0
   -9.7207    0.8898    0.0000 C   0  0  0  0  0  0  0  0  0  0  0  0
   -7.7133    3.1192    0.0000 C   0  0  0  0  0  0  0  0  0  0  0  0
   -9.8318    3.0082    0.0000 C   0  0  0  0  0  0  0  0  0  0  0  0
   -3.1240    1.8037    0.0000 C   0  0  0  0  0  0  0  0  0  0  0  0
   -2.9672    0.3119    0.0000 N   0  0  0  0  0  0  0  0  0  0  0  0
  1  2  1  0
  2  3  1  0
  3  4  1  0
  4  5  2  0
  5  6  1  0
  6  7  2  0
  7  8  1  0
  7  9  1  0
  9 10  1  1
 10 11  1  0
 11 12  1  0
 12 13  1  0
 12 14  1  0
 14 15  2  0
 14 16  2  0
 14 17  1  0
 17 18  1  0
 18 19  2  0
 19 20  1  0
 20 21  1  0
 21 22  2  0
 21 23  1  0
 20 24  2  0
 24 25  1  0
  9 26  1  0
 26 27  1  0
 27 28  1  0
 28 29  1  6
 28 30  1  0
 30 31  1  0
 31 32  1  0
 32 33  1  0
 33 34  2  0
 34 35  1  0
 35 36  2  0
 36 37  1  0
 37 38  2  0
 32 39  1  0
 39 40  2  0
 40 41  1  0
 41 42  2  0
 42 43  1  0
 43 44  2  0
 32 45  1  0
 45 46  1  0
 45 47  1  0
 45 48  1  0
 28 49  1  0
 49 50  2  0
  8  3  2  0
 49  9  1  0
 50  6  1  0
 25 17  2  0
 38 33  1  0
 44 39  1  0
M  CHG  2  21   1  23  -1
M  END
$$$$
45
     RDKit          2D

 38 43  0  0  0  0  0  0  0  0999 V2000
    3.7500   -1.2990    0.0000 C   0  0  0  0  0  0  0  0  0  0  0  0
    3.0000    0.0000    0.0000 O   0  0  0  0  0  0  0  0  0  0  0  0
    1.5000    0.0000    0.0000 C   0  0  0  0  0  0  0  0  0  0  0  0
    0.7500   -1.2990    0.0000 C   0  0  0  0  0  0  0  0  0  0  0  0
   -0.7500   -1.2990    0.0000 C   0  0  0  0  0  0  0  0  0  0  0  0
   -1.5000    0.0000    0.0000 C   0  0  0  0  0  0  0  0  0  0  0  0
   -0.7500    1.2990    0.0000 C   0  0  0  0  0  0  0  0  0  0  0  0
    0.7500    1.2990    0.0000 C   0  0  0  0  0  0  0  0  0  0  0  0
   -1.7537    2.4138    0.0000 C   0  0  0  0  0  0  0  0  0  0  0  0
   -1.9105    3.9055    0.0000 C   0  0  0  0  0  0  0  0  0  0  0  0
   -3.3777    4.2174    0.0000 C   0  0  0  0  0  0  0  0  0  0  0  0
   -4.1277    2.9184    0.0000 N   0  0  0  0  0  0  0  0  0  0  0  0
   -5.6195    2.7616    0.0000 C   0  0  0  0  0  0  0  0  0  0  0  0
   -3.1240    1.8037    0.0000 C   0  0  0  0  0  0  0  0  0  0  0  0
   -2.9672    0.3119    0.0000 N   0  0  0  0  0  0  0  0  0  0  0  0
   -2.6161    1.5848    0.0000 C   0  0  0  0  0  0  0  0  0  0  0  0
   -5.1314    1.8037    0.0000 C   0  0  0  0  0  0  0  0  0  0  0  0
   -5.3412    3.8000    0.0000 C   0  0  0  0  0  0  0  0  0  0  0  0
   -6.7116    3.1899    0.0000 O   0  0  0  0  0  0  0  0  0  0  0  0
   -7.9251    4.0716    0.0000 Si  0  0  0  0  0  4  0  0  0  0  0  0
   -7.0434    5.2851    0.0000 C   0  0  0  0  0  0  0  0  0  0  0  0
   -5.5516    5.1284    0.0000 C   0  0  0  0  0  0  0  0  0  0  0  0
   -4.6699    6.3419    0.0000 C   0  0  0  0  0  0  0  0  0  0  0  0
   -5.2800    7.7122    0.0000 C   0  0  0  0  0  0  0  0  0  0  0  0
   -6.7718    7.8690    0.0000 C   0  0  0  0  0  0  0  0  0  0  0  0
   -7.6535    6.6555    0.0000 C   0  0  0  0  0  0  0  0  0  0  0  0
   -9.1386    4.9533    0.0000 C   0  0  0  0  0  0  0  0  0  0  0  0
   -8.9818    6.4451    0.0000 C   0  0  0  0  0  0  0  0  0  0  0  0
  -10.1953    7.3268    0.0000 C   0  0  0  0  0  0  0  0  0  0  0  0
  -11.5657    6.7167    0.0000 C   0  0  0  0  0  0  0  0  0  0  0  0
  -11.7224    5.2249    0.0000 C   0  0  0  0  0  0  0  0  0  0  0  0
  -10.5089    4.3432    0.0000 C   0  0  0  0  0  0  0  0  0  0  0  0
   -8.8068    2.8581    0.0000 C   0  0  0  0  0  0  0  0  0  0  0  0
  -10.0203    3.7398    0.0000 C   0  0  0  0  0  0  0  0  0  0  0  0
   -7.5932    1.9764    0.0000 C   0  0  0  0  0  0  0  0  0  0  0  0
   -9.6884    1.6446    0.0000 C   0  0  0  0  0  0  0  0  0  0  0  0
   -2.5236    2.2990    0.0000 C   0  0  0  0  0  0  0  0  0  0  0  0
   -1.9309    1.8899    0.0000 C   0  0  0  0  0  0  0  0  0  0  0  0
  1  2  1  0
  2  3  1  0
  3  4  1  0
  4  5  2  0
  5  6  1  0
  6  7  2  0
  7  8  1  0
  7  9  1  0
  9 10  1  6
 10 11  1  0
 11 12  1  0
 12 13  1  0
 12 14  1  0
 14 15  1  1
 14 16  1  0
 16 17  1  6
 16 18  1  0
 18 19  1  0
 19 20  1  0
 20 21  1  0
 21 22  2  0
 22 23  1  0
 23 24  2  0
 24 25  1  0
 25 26  2  0
 20 27  1  0
 27 28  2  0
 28 29  1  0
 29 30  2  0
 30 31  1  0
 31 32  2  0
 20 33  1  0
 33 34  1  0
 33 35  1  0
 33 36  1  0
 16 37  1  0
 37 38  1  0
  8  3  2  0
 14  9  1  0
 26 21  1  0
 32 27  1  0
 15  6  1  0
 38  9  1  0
M  END
$$$$
4
     RDKit          2D

 21 24  0  0  0  0  0  0  0  0999 V2000
    3.7500   -1.2990    0.0000 C   0  0  0  0  0  0  0  0  0  0  0  0
    3.0000    0.0000    0.0000 O   0  0  0  0  0  0  0  0  0  0  0  0
    1.5000    0.0000    0.0000 C   0  0  0  0  0  0  0  0  0  0  0  0
    0.7500   -1.2990    0.0000 C   0  0  0  0  0  0  0  0  0  0  0  0
   -0.7500   -1.2990    0.0000 C   0  0  0  0  0  0  0  0  0  0  0  0
   -1.5000    0.0000    0.0000 C   0  0  0  0  0  0  0  0  0  0  0  0
   -0.7500    1.2990    0.0000 C   0  0  0  0  0  0  0  0  0  0  0  0
    0.7500    1.2990    0.0000 C   0  0  0  0  0  0  0  0  0  0  0  0
   -1.7537    2.4138    0.0000 C   0  0  0  0  0  0  0  0  0  0  0  0
   -1.9105    3.9055    0.0000 C   0  0  0  0  0  0  0  0  0  0  0  0
   -3.3777    4.2174    0.0000 C   0  0  0  0  0  0  0  0  0  0  0  0
   -4.1277    2.9184    0.0000 N   0  0  0  0  0  0  0  0  0  0  0  0
   -5.6195    2.7616    0.0000 C   0  0  0  0  0  0  0  0  0  0  0  0
   -3.1240    1.8037    0.0000 C   0  0  0  0  0  0  0  0  0  0  0  0
   -2.9672    0.3119    0.0000 N   0  0  0  0  0  0  0  0  0  0  0  0
   -2.6161    1.5848    0.0000 C   0  0  0  0  0  0  0  0  0  0  0  0
   -5.1314    1.8037    0.0000 C   0  0  0  0  0  0  0  0  0  0  0  0
   -5.3412    3.8000    0.0000 C   0  0  0  0  0  0  0  0  0  0  0  0
   -6.7116    3.1899    0.0000 O   0  0  0  0  0  0  0  0  0  0  0  0
   -2.5236    2.2990    0.0000 C   0  0  0  0  0  0  0  0  0  0  0  0
   -1.9309    1.8899    0.0000 C   0  0  0  0  0  0  0  0  0  0  0  0
  1  2  1  0
  2  3  1  0
  3  4  1  0
  4  5  2  0
  5  6  1  0
  6  7  2  0
  7  8  1  0
  7  9  1  0
  9 10  1  6
 10 11  1  0
 11 12  1  0
 12 13  1  0
 12 14  1  0
 14 15  1  1
 14 16  1  0
 16 17  1  6
 16 18  1  0
 18 19  1  0
 16 20  1  0
 20 21  1  0
  8  3  2  0
 14  9  1  0
 15  6  1  0
 21  9  1  0
M  END
$$$$
