14
     RDKit          2D

 12 12  0  0  0  0  0  0  0  0999 V2000
    3.7500   -1.2990    0.0000 O   0  0  0  0  0  0  0  0  0  0  0  0
    3.0000    0.0000    0.0000 C   0  0  0  0  0  0  0  0  0  0  0  0
    1.5000    0.0000    0.0000 C   0  0  0  0  0  0  0  0  0  0  0  0
    0.7500   -1.2990    0.0000 O   0  0  0  0  0  0  0  0  0  0  0  0
   -0.7500   -1.2990    0.0000 C   0  0  0  0  0  0  0  0  0  0  0  0
   -1.5000   -2.5981    0.0000 O   0  0  0  0  0  0  0  0  0  0  0  0
   -1.5000    0.0000    0.0000 C   0  0  0  0  0  0  0  0  0  0  0  0
   -3.0000    0.0000    0.0000 O   0  0  0  0  0  0  0  0  0  0  0  0
   -0.7500    1.2990    0.0000 C   0  0  0  0  0  0  0  0  0  0  0  0
   -1.5000    2.5981    0.0000 O   0  0  0  0  0  0  0  0  0  0  0  0
    0.7500    1.2990    0.0000 C   0  0  0  0  0  0  0  0  0  0  0  0
    1.5000    2.5981    0.0000 O   0  0  0  0  0  0  0  0  0  0  0  0
  1  2  1  0
  3  2  1  1
  3  4  1  0
  4  5  1  0
  5  6  1  0
  5  7  1  0
  7  8  1  6
  7  9  1  0
  9 10  1  1
  9 11  1  0
 11 12  1  6
 11  3  1  0
M  END
$$$$
10
     RDKit          2D

 22 24  0  0  0  0  0  0  0  0999 V2000
    5.2500   -6.4952    0.0000 C   0  0  0  0  0  0  0  0  0  0  0  0
    3.7500   -6.4952    0.0000 C   0  0  0  0  0  0  0  0  0  0  0  0
    3.0000   -5.1962    0.0000 C   0  0  0  0  0  0  0  0  0  0  0  0
    1.5000   -5.1962    0.0000 O   0  0  0  0  0  0  0  0  0  0  0  0
    0.7500   -3.8971    0.0000 C   0  0  0  0  0  0  0  0  0  0  0  0
    1.5000   -2.5981    0.0000 O   0  0  0  0  0  0  0  0  0  0  0  0
    0.7500   -1.2990    0.0000 C   0  0  0  0  0  0  0  0  0  0  0  0
    1.5000    0.0000    0.0000 C   0  0  0  0  0  0  0  0  0  0  0  0
    0.7500    1.2990    0.0000 O   0  0  0  0  0  0  0  0  0  0  0  0
   -0.7500    1.2990    0.0000 C   0  0  0  0  0  0  0  0  0  0  0  0
   -1.5000    2.5981    0.0000 C   0  0  0  0  0  0  0  0  0  0  0  0
   -0.7500    3.8971    0.0000 C   0  0  0  0  0  0  0  0  0  0  0  0
   -1.5000    5.1962    0.0000 C   0  0  0  0  0  0  0  0  0  0  0  0
   -3.0000    5.1962    0.0000 C   0  0  0  0  0  0  0  0  0  0  0  0
   -3.7500    3.8971    0.0000 C   0  0  0  0  0  0  0  0  0  0  0  0
   -3.0000    2.5981    0.0000 C   0  0  0  0  0  0  0  0  0  0  0  0
   -1.5000    0.0000    0.0000 O   0  0  0  0  0  0  0  0  0  0  0  0
   -0.7500   -1.2990    0.0000 C   0  0  0  0  0  0  0  0  0  0  0  0
   -1.5000   -2.5981    0.0000 C   0  0  0  0  0  0  0  0  0  0  0  0
   -3.0000   -2.5981    0.0000 O   0  0  0  0  0  0  0  0  0  0  0  0
   -0.7500   -3.8971    0.0000 C   0  0  0  0  0  0  0  0  0  0  0  0
   -1.5000   -5.1962    0.0000 O   0  0  0  0  0  0  0  0  0  0  0  0
  1  2  2  0
  2  3  1  0
  3  4  1  0
  5  4  1  6
  5  6  1  0
  6  7  1  0
  7  8  1  1
  8  9  1  0
  9 10  1  0
 10 11  1  0
 11 12  2  0
 12 13  1  0
 13 14  2  0
 14 15  1  0
 15 16  2  0
 10 17  1  0
 18 17  1  6
 18 19  1  0
 19 20  1  1
 19 21  1  0
 21 22  1  6
 21  5  1  0
 18  7  1  0
 16 11  1  0
M  END
$$$$
15
     RDKit          2D

 86 92  0  0  0  0  0  0  0  0999 V2000
    5.2500   -6.4952    0.0000 C   0  0  0  0  0  0  0  0  0  0  0  0
    3.7500   -6.4952    0.0000 C   0  0  0  0  0  0  0  0  0  0  0  0
    3.0000   -5.1962    0.0000 C   0  0  0  0  0  0  0  0  0  0  0  0
    1.5000   -5.1962    0.0000 O   0  0  0  0  0  0  0  0  0  0  0  0
    0.7500   -3.8971    0.0000 C   0  0  0  0  0  0  0  0  0  0  0  0
    1.5000   -2.5981    0.0000 O   0  0  0  0  0  0  0  0  0  0  0  0
    0.7500   -1.2990    0.0000 C   0  0  0  0  0  0  0  0  0  0  0  0
    1.5000    0.0000    0.0000 C   0  0  0  0  0  0  0  0  0  0  0  0
    0.7500    1.2990    0.0000 O   0  0  0  0  0  0  0  0  0  0  0  0
   -0.7500    1.2990    0.0000 C   0  0  0  0  0  0  0  0  0  0  0  0
   -1.5000    2.5981    0.0000 C   0  0  0  0  0  0  0  0  0  0  0  0
   -0.7500    3.8971    0.0000 C   0  0  0  0  0  0  0  0  0  0  0  0
   -1.5000    5.1962    0.0000 C   0  0  0  0  0  0  0  0  0  0  0  0
   -3.0000    5.1962    0.0000 C   0  0  0  0  0  0  0  0  0  0  0  0
   -3.7500    3.8971    0.0000 C   0  0  0  0  0  0  0  0  0  0  0  0
   -3.0000    2.5981    0.0000 C   0  0  0  0  0  0  0  0  0  0  0  0
   -1.5000    0.0000    0.0000 O   0  0  0  0  0  0  0  0  0  0  0  0
   -0.7500   -1.2990    0.0000 C   0  0  0  0  0  0  0  0  0  0  0  0
   -1.5000   -2.5981    0.0000 C   0  0  0  0  0  0  0  0  0  0  0  0
   -3.0000   -2.5981    0.0000 O   0  0  0  0  0  0  0  0  0  0  0  0
   -3.7500   -3.8971    0.0000 C   0  0  0  0  0  0  0  0  0  0  0  0
   -3.5303   -4.6634    0.0000 O   0  0  0  0  0  0  0  0  0  0  0  0
   -5.2500   -3.8971    0.0000 C   0  0  0  0  0  0  0  0  0  0  0  0
   -6.0000   -2.5981    0.0000 C   0  0  0  0  0  0  0  0  0  0  0  0
   -7.5000   -2.5981    0.0000 C   0  0  0  0  0  0  0  0  0  0  0  0
   -8.2500   -1.2990    0.0000 O   0  0  0  0  0  0  0  0  0  0  0  0
   -7.5000    0.0000    0.0000 Si  0  0  0  0  0  4  0  0  0  0  0  0
   -8.7990    0.7500    0.0000 C   0  0  0  0  0  0  0  0  0  0  0  0
   -6.2010   -0.7500    0.0000 C   0  0  0  0  0  0  0  0  0  0  0  0
   -6.7500    1.2990    0.0000 C   0  0  0  0  0  0  0  0  0  0  0  0
   -5.4510    0.5490    0.0000 C   0  0  0  0  0  0  0  0  0  0  0  0
   -8.0490    2.0490    0.0000 C   0  0  0  0  0  0  0  0  0  0  0  0
   -6.0000    2.5981    0.0000 C   0  0  0  0  0  0  0  0  0  0  0  0
   -8.2500   -3.8971    0.0000 C   0  0  0  0  0  0  0  0  0  0  0  0
   -9.7500   -3.8971    0.0000 O   0  0  0  0  0  0  0  0  0  0  0  0
  -10.5000   -5.1962    0.0000 C   0  0  0  0  0  0  0  0  0  0  0  0
  -12.0000   -5.1962    0.0000 C   0  0  0  0  0  0  0  0  0  0  0  0
  -12.7500   -3.8971    0.0000 C   0  0  0  0  0  0  0  0  0  0  0  0
  -14.2500   -3.8971    0.0000 C   0  0  0  0  0  0  0  0  0  0  0  0
  -15.0000   -5.1962    0.0000 C   0  0  0  0  0  0  0  0  0  0  0  0
  -14.2500   -6.4952    0.0000 C   0  0  0  0  0  0  0  0  0  0  0  0
  -12.7500   -6.4952    0.0000 C   0  0  0  0  0  0  0  0  0  0  0  0
   -7.5000   -5.1962    0.0000 C   0  0  0  0  0  0  0  0  0  0  0  0
   -8.2500   -6.4952    0.0000 O   0  0  0  0  0  0  0  0  0  0  0  0
   -7.5000   -7.7942    0.0000 Si  0  0  0  0  0  4  0  0  0  0  0  0
   -8.7990   -8.5442    0.0000 C   0  0  0  0  0  0  0  0  0  0  0  0
   -6.2010   -7.0442    0.0000 C   0  0  0  0  0  0  0  0  0  0  0  0
   -6.7500   -9.0933    0.0000 C   0  0  0  0  0  0  0  0  0  0  0  0
   -8.0490   -9.8433    0.0000 C   0  0  0  0  0  0  0  0  0  0  0  0
   -5.4510   -8.3433    0.0000 C   0  0  0  0  0  0  0  0  0  0  0  0
   -6.3366  -10.5352    0.0000 C   0  0  0  0  0  0  0  0  0  0  0  0
   -6.0000   -5.1962    0.0000 C   0  0  0  0  0  0  0  0  0  0  0  0
   -0.7500   -3.8971    0.0000 C   0  0  0  0  0  0  0  0  0  0  0  0
   -1.5000   -5.1962    0.0000 O   0  0  0  0  0  0  0  0  0  0  0  0
   -3.0000   -5.1962    0.0000 C   0  0  0  0  0  0  0  0  0  0  0  0
   -4.0420   -4.1172    0.0000 O   0  0  0  0  0  0  0  0  0  0  0  0
   -3.7500   -6.4952    0.0000 C   0  0  0  0  0  0  0  0  0  0  0  0
   -3.0000   -7.7942    0.0000 C   0  0  0  0  0  0  0  0  0  0  0  0
   -3.7500   -9.0933    0.0000 C   0  0  0  0  0  0  0  0  0  0  0  0
   -3.0000  -10.3923    0.0000 O   0  0  0  0  0  0  0  0  0  0  0  0
   -1.5000  -10.3923    0.0000 Si  0  0  0  0  0  4  0  0  0  0  0  0
   -1.5000  -11.8923    0.0000 C   0  0  0  0  0  0  0  0  0  0  0  0
   -1.5000   -8.8923    0.0000 C   0  0  0  0  0  0  0  0  0  0  0  0
   -0.0000  -10.3923    0.0000 C   0  0  0  0  0  0  0  0  0  0  0  0
   -0.0000   -8.8923    0.0000 C   0  0  0  0  0  0  0  0  0  0  0  0
   -0.0000  -11.8923    0.0000 C   0  0  0  0  0  0  0  0  0  0  0  0
    1.5000  -10.3923    0.0000 C   0  0  0  0  0  0  0  0  0  0  0  0
   -5.2500   -9.0933    0.0000 C   0  0  0  0  0  0  0  0  0  0  0  0
   -6.0000  -10.3923    0.0000 O   0  0  0  0  0  0  0  0  0  0  0  0
   -7.5000  -10.3923    0.0000 C   0  0  0  0  0  0  0  0  0  0  0  0
   -8.2500  -11.6913    0.0000 C   0  0  0  0  0  0  0  0  0  0  0  0
   -7.5000  -12.9904    0.0000 C   0  0  0  0  0  0  0  0  0  0  0  0
   -8.2500  -14.2894    0.0000 C   0  0  0  0  0  0  0  0  0  0  0  0
   -9.7500  -14.2894    0.0000 C   0  0  0  0  0  0  0  0  0  0  0  0
  -10.5000  -12.9904    0.0000 C   0  0  0  0  0  0  0  0  0  0  0  0
   -9.7500  -11.6913    0.0000 C   0  0  0  0  0  0  0  0  0  0  0  0
   -6.0000   -7.7942    0.0000 C   0  0  0  0  0  0  0  0  0  0  0  0
   -7.5000   -7.7942    0.0000 O   0  0  0  0  0  0  0  0  0  0  0  0
   -8.2500   -6.4952    0.0000 Si  0  0  0  0  0  4  0  0  0  0  0  0
   -9.5490   -7.2452    0.0000 C   0  0  0  0  0  0  0  0  0  0  0  0
   -6.9510   -5.7452    0.0000 C   0  0  0  0  0  0  0  0  0  0  0  0
   -9.0000   -5.1962    0.0000 C   0  0  0  0  0  0  0  0  0  0  0  0
   -7.7010   -4.4462    0.0000 C   0  0  0  0  0  0  0  0  0  0  0  0
  -10.2990   -5.9462    0.0000 C   0  0  0  0  0  0  0  0  0  0  0  0
  -10.0420   -4.1172    0.0000 C   0  0  0  0  0  0  0  0  0  0  0  0
   -5.2500   -6.4952    0.0000 C   0  0  0  0  0  0  0  0  0  0  0  0
  1  2  2  0
  2  3  1  0
  3  4  1  0
  5  4  1  6
  5  6  1  0
  6  7  1  0
  7  8  1  1
  8  9  1  0
  9 10  1  0
 10 11  1  0
 11 12  2  0
 12 13  1  0
 13 14  2  0
 14 15  1  0
 15 16  2  0
 10 17  1  0
 18 17  1  6
 18 19  1  0
 19 20  1  1
 20 21  1  0
 21 22  2  0
 21 23  1  0
 23 24  2  0
 24 25  1  0
 25 26  1  0
 26 27  1  0
 27 28  1  0
 27 29  1  0
 27 30  1  0
 30 31  1  0
 30 32  1  0
 30 33  1  0
 25 34  2  0
 34 35  1  0
 35 36  1  0
 36 37  1  0
 37 38  2  0
 38 39  1  0
 39 40  2  0
 40 41  1  0
 41 42  2  0
 34 43  1  0
 43 44  1  0
 44 45  1  0
 45 46  1  0
 45 47  1  0
 45 48  1  0
 48 49  1  0
 48 50  1  0
 48 51  1  0
 43 52  2  0
 19 53  1  0
 53 54  1  6
 54 55  1  0
 55 56  2  0
 55 57  1  0
 57 58  2  0
 58 59  1  0
 59 60  1  0
 60 61  1  0
 61 62  1  0
 61 63  1  0
 61 64  1  0
 64 65  1  0
 64 66  1  0
 64 67  1  0
 59 68  2  0
 68 69  1  0
 69 70  1  0
 70 71  1  0
 71 72  2  0
 72 73  1  0
 73 74  2  0
 74 75  1  0
 75 76  2  0
 68 77  1  0
 77 78  1  0
 78 79  1  0
 79 80  1  0
 79 81  1  0
 79 82  1  0
 82 83  1  0
 82 84  1  0
 82 85  1  0
 77 86  2  0
 53  5  1  0
 86 57  1  0
 18  7  1  0
 52 23  1  0
 76 71  1  0
 16 11  1  0
 42 37  1  0
M  END
$$$$
9
     RDKit          2D

 58 64  0  0  0  0  0  0  0  0999 V2000
    5.2500   -6.4952    0.0000 C   0  0  0  0  0  0  0  0  0  0  0  0
    3.7500   -6.4952    0.0000 C   0  0  0  0  0  0  0  0  0  0  0  0
    3.0000   -5.1962    0.0000 C   0  0  0  0  0  0  0  0  0  0  0  0
    1.5000   -5.1962    0.0000 O   0  0  0  0  0  0  0  0  0  0  0  0
    0.7500   -3.8971    0.0000 C   0  0  0  0  0  0  0  0  0  0  0  0
    1.5000   -2.5981    0.0000 O   0  0  0  0  0  0  0  0  0  0  0  0
    0.7500   -1.2990    0.0000 C   0  0  0  0  0  0  0  0  0  0  0  0
    1.5000    0.0000    0.0000 C   0  0  0  0  0  0  0  0  0  0  0  0
    0.7500    1.2990    0.0000 O   0  0  0  0  0  0  0  0  0  0  0  0
   -0.7500    1.2990    0.0000 C   0  0  0  0  0  0  0  0  0  0  0  0
   -1.5000    2.5981    0.0000 C   0  0  0  0  0  0  0  0  0  0  0  0
   -0.7500    3.8971    0.0000 C   0  0  0  0  0  0  0  0  0  0  0  0
   -1.5000    5.1962    0.0000 C   0  0  0  0  0  0  0  0  0  0  0  0
   -3.0000    5.1962    0.0000 C   0  0  0  0  0  0  0  0  0  0  0  0
   -3.7500    3.8971    0.0000 C   0  0  0  0  0  0  0  0  0  0  0  0
   -3.0000    2.5981    0.0000 C   0  0  0  0  0  0  0  0  0  0  0  0
   -1.5000    0.0000    0.0000 O   0  0  0  0  0  0  0  0  0  0  0  0
   -0.7500   -1.2990    0.0000 C   0  0  0  0  0  0  0  0  0  0  0  0
   -1.5000   -2.5981    0.0000 C   0  0  0  0  0  0  0  0  0  0  0  0
   -3.0000   -2.5981    0.0000 O   0  0  0  0  0  0  0  0  0  0  0  0
   -3.7500   -3.8971    0.0000 C   0  0  0  0  0  0  0  0  0  0  0  0
   -3.0000   -5.1962    0.0000 O   0  0  0  0  0  0  0  0  0  0  0  0
   -5.2500   -3.8971    0.0000 C   0  0  0  0  0  0  0  0  0  0  0  0
   -6.0000   -2.5981    0.0000 C   0  0  0  0  0  0  0  0  0  0  0  0
   -7.5000   -2.5981    0.0000 C   0  0  0  0  0  0  0  0  0  0  0  0
   -8.2500   -1.2990    0.0000 O   0  0  0  0  0  0  0  0  0  0  0  0
   -8.2500   -3.8971    0.0000 C   0  0  0  0  0  0  0  0  0  0  0  0
   -9.7500   -3.8971    0.0000 O   0  0  0  0  0  0  0  0  0  0  0  0
  -10.5000   -5.1962    0.0000 C   0  0  0  0  0  0  0  0  0  0  0  0
  -12.0000   -5.1962    0.0000 C   0  0  0  0  0  0  0  0  0  0  0  0
  -12.7500   -3.8971    0.0000 C   0  0  0  0  0  0  0  0  0  0  0  0
  -14.2500   -3.8971    0.0000 C   0  0  0  0  0  0  0  0  0  0  0  0
  -15.0000   -5.1962    0.0000 C   0  0  0  0  0  0  0  0  0  0  0  0
  -14.2500   -6.4952    0.0000 C   0  0  0  0  0  0  0  0  0  0  0  0
  -12.7500   -6.4952    0.0000 C   0  0  0  0  0  0  0  0  0  0  0  0
   -7.5000   -5.1962    0.0000 C   0  0  0  0  0  0  0  0  0  0  0  0
   -8.2500   -6.4952    0.0000 O   0  0  0  0  0  0  0  0  0  0  0  0
   -6.0000   -5.1962    0.0000 C   0  0  0  0  0  0  0  0  0  0  0  0
   -0.7500   -3.8971    0.0000 C   0  0  0  0  0  0  0  0  0  0  0  0
   -1.5000   -5.1962    0.0000 O   0  0  0  0  0  0  0  0  0  0  0  0
   -0.7500   -6.4952    0.0000 C   0  0  0  0  0  0  0  0  0  0  0  0
    0.7500   -6.4952    0.0000 O   0  0  0  0  0  0  0  0  0  0  0  0
   -1.5000   -7.7942    0.0000 C   0  0  0  0  0  0  0  0  0  0  0  0
   -3.0000   -7.7942    0.0000 C   0  0  0  0  0  0  0  0  0  0  0  0
   -3.7500   -9.0933    0.0000 C   0  0  0  0  0  0  0  0  0  0  0  0
   -5.2500   -9.0933    0.0000 O   0  0  0  0  0  0  0  0  0  0  0  0
   -3.0000  -10.3923    0.0000 C   0  0  0  0  0  0  0  0  0  0  0  0
   -3.7500  -11.6913    0.0000 O   0  0  0  0  0  0  0  0  0  0  0  0
   -3.0000  -12.9904    0.0000 C   0  0  0  0  0  0  0  0  0  0  0  0
   -3.7500  -14.2894    0.0000 C   0  0  0  0  0  0  0  0  0  0  0  0
   -5.2500  -14.2894    0.0000 C   0  0  0  0  0  0  0  0  0  0  0  0
   -6.0000  -15.5885    0.0000 C   0  0  0  0  0  0  0  0  0  0  0  0
   -5.2500  -16.8875    0.0000 C   0  0  0  0  0  0  0  0  0  0  0  0
   -3.7500  -16.8875    0.0000 C   0  0  0  0  0  0  0  0  0  0  0  0
   -3.0000  -15.5885    0.0000 C   0  0  0  0  0  0  0  0  0  0  0  0
   -1.5000  -10.3923    0.0000 C   0  0  0  0  0  0  0  0  0  0  0  0
   -0.7500  -11.6913    0.0000 O   0  0  0  0  0  0  0  0  0  0  0  0
   -0.7500   -9.0933    0.0000 C   0  0  0  0  0  0  0  0  0  0  0  0
  1  2  2  0
  2  3  1  0
  3  4  1  0
  5  4  1  6
  5  6  1  0
  6  7  1  0
  7  8  1  1
  8  9  1  0
  9 10  1  0
 10 11  1  0
 11 12  2  0
 12 13  1  0
 13 14  2  0
 14 15  1  0
 15 16  2  0
 10 17  1  0
 18 17  1  6
 18 19  1  0
 19 20  1  1
 20 21  1  0
 21 22  2  0
 21 23  1  0
 23 24  2  0
 24 25  1  0
 25 26  1  0
 25 27  2  0
 27 28  1  0
 28 29  1  0
 29 30  1  0
 30 31  2  0
 31 32  1  0
 32 33  2  0
 33 34  1  0
 34 35  2  0
 27 36  1  0
 36 37  1  0
 36 38  2  0
 19 39  1  0
 39 40  1  6
 40 41  1  0
 41 42  2  0
 41 43  1  0
 43 44  2  0
 44 45  1  0
 45 46  1  0
 45 47  2  0
 47 48  1  0
 48 49  1  0
 49 50  1  0
 50 51  2  0
 51 52  1  0
 52 53  2  0
 53 54  1  0
 54 55  2  0
 47 56  1  0
 56 57  1  0
 56 58  2  0
 39  5  1  0
 58 43  1  0
 18  7  1  0
 38 23  1  0
 55 50  1  0
 16 11  1  0
 35 30  1  0
M  END
$$$$
16
     RDKit          2D

 58 65  0  0  0  0  0  0  0  0999 V2000
    5.2500   -6.4952    0.0000 C   0  0  0  0  0  0  0  0  0  0  0  0
    3.7500   -6.4952    0.0000 C   0  0  0  0  0  0  0  0  0  0  0  0
    3.0000   -5.1962    0.0000 C   0  0  0  0  0  0  0  0  0  0  0  0
    1.5000   -5.1962    0.0000 O   0  0  0  0  0  0  0  0  0  0  0  0
    0.7500   -3.8971    0.0000 C   0  0  0  0  0  0  0  0  0  0  0  0
    1.5000   -2.5981    0.0000 O   0  0  0  0  0  0  0  0  0  0  0  0
    0.7500   -1.2990    0.0000 C   0  0  0  0  0  0  0  0  0  0  0  0
    1.5000    0.0000    0.0000 C   0  0  0  0  0  0  0  0  0  0  0  0
    0.7500    1.2990    0.0000 O   0  0  0  0  0  0  0  0  0  0  0  0
   -0.7500    1.2990    0.0000 C   0  0  0  0  0  0  0  0  0  0  0  0
   -1.5000    2.5981    0.0000 C   0  0  0  0  0  0  0  0  0  0  0  0
   -0.7500    3.8971    0.0000 C   0  0  0  0  0  0  0  0  0  0  0  0
   -1.5000    5.1962    0.0000 C   0  0  0  0  0  0  0  0  0  0  0  0
   -3.0000    5.1962    0.0000 C   0  0  0  0  0  0  0  0  0  0  0  0
   -3.7500    3.8971    0.0000 C   0  0  0  0  0  0  0  0  0  0  0  0
   -3.0000    2.5981    0.0000 C   0  0  0  0  0  0  0  0  0  0  0  0
   -1.5000    0.0000    0.0000 O   0  0  0  0  0  0  0  0  0  0  0  0
   -0.7500   -1.2990    0.0000 C   0  0  0  0  0  0  0  0  0  0  0  0
   -1.5000   -2.5981    0.0000 C   0  0  0  0  0  0  0  0  0  0  0  0
   -2.8703   -1.9880    0.0000 O   0  0  0  0  0  0  0  0  0  0  0  0
   -4.3375   -2.2998    0.0000 C   0  0  0  0  0  0  0  0  0  0  0  0
   -5.0875   -1.0008    0.0000 O   0  0  0  0  0  0  0  0  0  0  0  0
   -5.3412   -3.4146    0.0000 C   0  0  0  0  0  0  0  0  0  0  0  0
   -6.5548   -2.5329    0.0000 C   0  0  0  0  0  0  0  0  0  0  0  0
   -7.9251   -3.1430    0.0000 C   0  0  0  0  0  0  0  0  0  0  0  0
   -9.1386   -2.2613    0.0000 O   0  0  0  0  0  0  0  0  0  0  0  0
   -8.0819   -4.6348    0.0000 C   0  0  0  0  0  0  0  0  0  0  0  0
   -9.4522   -5.2449    0.0000 O   0  0  0  0  0  0  0  0  0  0  0  0
  -10.6657   -4.3632    0.0000 C   0  0  0  0  0  0  0  0  0  0  0  0
  -12.0360   -4.9733    0.0000 C   0  0  0  0  0  0  0  0  0  0  0  0
  -13.2496   -4.0916    0.0000 C   0  0  0  0  0  0  0  0  0  0  0  0
  -14.6199   -4.7017    0.0000 C   0  0  0  0  0  0  0  0  0  0  0  0
  -14.7767   -6.1935    0.0000 C   0  0  0  0  0  0  0  0  0  0  0  0
  -13.5631   -7.0752    0.0000 C   0  0  0  0  0  0  0  0  0  0  0  0
  -12.1928   -6.4651    0.0000 C   0  0  0  0  0  0  0  0  0  0  0  0
   -6.8683   -5.5164    0.0000 C   0  0  0  0  0  0  0  0  0  0  0  0
   -7.0477   -6.2932    0.0000 O   0  0  0  0  0  0  0  0  0  0  0  0
   -5.4980   -4.9063    0.0000 C   0  0  0  0  0  0  0  0  0  0  0  0
   -4.7480   -6.2054    0.0000 C   0  0  0  0  0  0  0  0  0  0  0  0
   -3.3777   -6.8155    0.0000 C   0  0  0  0  0  0  0  0  0  0  0  0
   -3.2209   -8.3073    0.0000 C   0  0  0  0  0  0  0  0  0  0  0  0
   -4.4344   -9.1889    0.0000 C   0  0  0  0  0  0  0  0  0  0  0  0
   -4.2777  -10.6807    0.0000 O   0  0  0  0  0  0  0  0  0  0  0  0
   -5.8048   -8.5788    0.0000 C   0  0  0  0  0  0  0  0  0  0  0  0
   -7.0183   -9.4605    0.0000 O   0  0  0  0  0  0  0  0  0  0  0  0
   -6.8615  -10.9523    0.0000 C   0  0  0  0  0  0  0  0  0  0  0  0
   -8.0750  -11.8340    0.0000 C   0  0  0  0  0  0  0  0  0  0  0  0
   -9.4453  -11.2239    0.0000 C   0  0  0  0  0  0  0  0  0  0  0  0
  -10.6589  -12.1055    0.0000 C   0  0  0  0  0  0  0  0  0  0  0  0
  -10.5021  -13.5973    0.0000 C   0  0  0  0  0  0  0  0  0  0  0  0
   -9.1318  -14.2074    0.0000 C   0  0  0  0  0  0  0  0  0  0  0  0
   -7.9182  -13.3258    0.0000 C   0  0  0  0  0  0  0  0  0  0  0  0
   -5.9616   -7.0871    0.0000 C   0  0  0  0  0  0  0  0  0  0  0  0
   -6.7239   -6.8540    0.0000 O   0  0  0  0  0  0  0  0  0  0  0  0
   -1.9105   -6.5036    0.0000 C   0  0  0  0  0  0  0  0  0  0  0  0
   -1.1605   -7.8027    0.0000 O   0  0  0  0  0  0  0  0  0  0  0  0
   -0.9068   -5.3889    0.0000 O   0  0  0  0  0  0  0  0  0  0  0  0
   -0.7500   -3.8971    0.0000 C   0  0  0  0  0  0  0  0  0  0  0  0
  1  2  2  0
  2  3  1  0
  3  4  1  0
  5  4  1  6
  5  6  1  0
  6  7  1  0
  7  8  1  1
  8  9  1  0
  9 10  1  0
 10 11  1  0
 11 12  2  0
 12 13  1  0
 13 14  2  0
 14 15  1  0
 15 16  2  0
 10 17  1  0
 18 17  1  6
 18 19  1  0
 19 20  1  1
 20 21  1  0
 21 22  2  0
 21 23  1  0
 23 24  1  0
 24 25  2  0
 25 26  1  0
 25 27  1  0
 27 28  1  0
 28 29  1  0
 29 30  1  0
 30 31  2  0
 31 32  1  0
 32 33  2  0
 33 34  1  0
 34 35  2  0
 27 36  2  0
 36 37  1  0
 36 38  1  0
 38 39  1  0
 39 40  2  0
 40 41  1  0
 41 42  2  0
 42 43  1  0
 42 44  1  0
 44 45  1  0
 45 46  1  0
 46 47  1  0
 47 48  2  0
 48 49  1  0
 49 50  2  0
 50 51  1  0
 51 52  2  0
 44 53  2  0
 53 54  1  0
 40 55  1  0
 55 56  2  0
 55 57  1  0
 58 57  1  6
 58  5  1  0
 18  7  1  0
 58 19  1  0
 16 11  1  0
 38 23  2  0
 53 39  1  0
 35 30  1  0
 52 47  1  0
M  END
$$$$
17
     RDKit          2D

 86 97  0  0  0  0  0  0  0  0999 V2000
    5.2500   -6.4952    0.0000 C   0  0  0  0  0  0  0  0  0  0  0  0
    3.7500   -6.4952    0.0000 C   0  0  0  0  0  0  0  0  0  0  0  0
    3.0000   -5.1962    0.0000 C   0  0  0  0  0  0  0  0  0  0  0  0
    1.5000   -5.1962    0.0000 O   0  0  0  0  0  0  0  0  0  0  0  0
    0.7500   -3.8971    0.0000 C   0  0  0  0  0  0  0  0  0  0  0  0
    1.5000   -2.5981    0.0000 O   0  0  0  0  0  0  0  0  0  0  0  0
    0.7500   -1.2990    0.0000 C   0  0  0  0  0  0  0  0  0  0  0  0
    1.5000    0.0000    0.0000 C   0  0  0  0  0  0  0  0  0  0  0  0
    0.7500    1.2990    0.0000 O   0  0  0  0  0  0  0  0  0  0  0  0
   -0.7500    1.2990    0.0000 C   0  0  0  0  0  0  0  0  0  0  0  0
   -1.5000    2.5981    0.0000 C   0  0  0  0  0  0  0  0  0  0  0  0
   -0.7500    3.8971    0.0000 C   0  0  0  0  0  0  0  0  0  0  0  0
   -1.5000    5.1962    0.0000 C   0  0  0  0  0  0  0  0  0  0  0  0
   -3.0000    5.1962    0.0000 C   0  0  0  0  0  0  0  0  0  0  0  0
   -3.7500    3.8971    0.0000 C   0  0  0  0  0  0  0  0  0  0  0  0
   -3.0000    2.5981    0.0000 C   0  0  0  0  0  0  0  0  0  0  0  0
   -1.5000    0.0000    0.0000 O   0  0  0  0  0  0  0  0  0  0  0  0
   -0.7500   -1.2990    0.0000 C   0  0  0  0  0  0  0  0  0  0  0  0
   -1.5000   -2.5981    0.0000 C   0  0  0  0  0  0  0  0  0  0  0  0
   -2.8703   -1.9880    0.0000 O   0  0  0  0  0  0  0  0  0  0  0  0
   -4.3375   -2.2998    0.0000 C   0  0  0  0  0  0  0  0  0  0  0  0
   -5.0875   -1.0008    0.0000 O   0  0  0  0  0  0  0  0  0  0  0  0
   -5.3412   -3.4146    0.0000 C   0  0  0  0  0  0  0  0  0  0  0  0
   -6.5548   -2.5329    0.0000 C   0  0  0  0  0  0  0  0  0  0  0  0
   -7.9251   -3.1430    0.0000 C   0  0  0  0  0  0  0  0  0  0  0  0
   -9.1386   -2.2613    0.0000 O   0  0  0  0  0  0  0  0  0  0  0  0
   -8.9818   -0.7695    0.0000 C   0  0  0  0  0  0  0  0  0  0  0  0
  -10.1953    0.1122    0.0000 C   0  0  0  0  0  0  0  0  0  0  0  0
  -10.0385    1.6039    0.0000 C   0  0  0  0  0  0  0  0  0  0  0  0
  -11.2521    2.4856    0.0000 C   0  0  0  0  0  0  0  0  0  0  0  0
  -12.6224    1.8755    0.0000 C   0  0  0  0  0  0  0  0  0  0  0  0
  -12.7792    0.3837    0.0000 C   0  0  0  0  0  0  0  0  0  0  0  0
  -11.5657   -0.4979    0.0000 C   0  0  0  0  0  0  0  0  0  0  0  0
   -8.0819   -4.6348    0.0000 C   0  0  0  0  0  0  0  0  0  0  0  0
   -9.4522   -5.2449    0.0000 O   0  0  0  0  0  0  0  0  0  0  0  0
  -10.6657   -4.3632    0.0000 C   0  0  0  0  0  0  0  0  0  0  0  0
  -12.0360   -4.9733    0.0000 C   0  0  0  0  0  0  0  0  0  0  0  0
  -13.2496   -4.0916    0.0000 C   0  0  0  0  0  0  0  0  0  0  0  0
  -14.6199   -4.7017    0.0000 C   0  0  0  0  0  0  0  0  0  0  0  0
  -14.7767   -6.1935    0.0000 C   0  0  0  0  0  0  0  0  0  0  0  0
  -13.5631   -7.0752    0.0000 C   0  0  0  0  0  0  0  0  0  0  0  0
  -12.1928   -6.4651    0.0000 C   0  0  0  0  0  0  0  0  0  0  0  0
   -6.8683   -5.5164    0.0000 C   0  0  0  0  0  0  0  0  0  0  0  0
   -7.0251   -7.0082    0.0000 O   0  0  0  0  0  0  0  0  0  0  0  0
   -8.3955   -7.6183    0.0000 C   0  0  0  0  0  0  0  0  0  0  0  0
   -8.5522   -9.1101    0.0000 C   0  0  0  0  0  0  0  0  0  0  0  0
   -9.9226   -9.7202    0.0000 C   0  0  0  0  0  0  0  0  0  0  0  0
  -10.0794  -11.2120    0.0000 C   0  0  0  0  0  0  0  0  0  0  0  0
   -8.8658  -12.0937    0.0000 C   0  0  0  0  0  0  0  0  0  0  0  0
   -7.4955  -11.4836    0.0000 C   0  0  0  0  0  0  0  0  0  0  0  0
   -7.3387   -9.9918    0.0000 C   0  0  0  0  0  0  0  0  0  0  0  0
   -5.4980   -4.9063    0.0000 C   0  0  0  0  0  0  0  0  0  0  0  0
   -4.7480   -6.2054    0.0000 C   0  0  0  0  0  0  0  0  0  0  0  0
   -3.3777   -6.8155    0.0000 C   0  0  0  0  0  0  0  0  0  0  0  0
   -3.2209   -8.3073    0.0000 C   0  0  0  0  0  0  0  0  0  0  0  0
   -4.4344   -9.1889    0.0000 C   0  0  0  0  0  0  0  0  0  0  0  0
   -4.2777  -10.6807    0.0000 O   0  0  0  0  0  0  0  0  0  0  0  0
   -5.4912  -11.5624    0.0000 C   0  0  0  0  0  0  0  0  0  0  0  0
   -5.3344  -13.0542    0.0000 C   0  0  0  0  0  0  0  0  0  0  0  0
   -6.5479  -13.9359    0.0000 C   0  0  0  0  0  0  0  0  0  0  0  0
   -6.3911  -15.4276    0.0000 C   0  0  0  0  0  0  0  0  0  0  0  0
   -5.0208  -16.0378    0.0000 C   0  0  0  0  0  0  0  0  0  0  0  0
   -3.8073  -15.1561    0.0000 C   0  0  0  0  0  0  0  0  0  0  0  0
   -3.9641  -13.6643    0.0000 C   0  0  0  0  0  0  0  0  0  0  0  0
   -5.8048   -8.5788    0.0000 C   0  0  0  0  0  0  0  0  0  0  0  0
   -7.0183   -9.4605    0.0000 O   0  0  0  0  0  0  0  0  0  0  0  0
   -6.8615  -10.9523    0.0000 C   0  0  0  0  0  0  0  0  0  0  0  0
   -8.0750  -11.8340    0.0000 C   0  0  0  0  0  0  0  0  0  0  0  0
   -9.4453  -11.2239    0.0000 C   0  0  0  0  0  0  0  0  0  0  0  0
  -10.6589  -12.1055    0.0000 C   0  0  0  0  0  0  0  0  0  0  0  0
  -10.5021  -13.5973    0.0000 C   0  0  0  0  0  0  0  0  0  0  0  0
   -9.1318  -14.2074    0.0000 C   0  0  0  0  0  0  0  0  0  0  0  0
   -7.9182  -13.3258    0.0000 C   0  0  0  0  0  0  0  0  0  0  0  0
   -5.9616   -7.0871    0.0000 C   0  0  0  0  0  0  0  0  0  0  0  0
   -7.3319   -6.4769    0.0000 O   0  0  0  0  0  0  0  0  0  0  0  0
   -8.5454   -7.3586    0.0000 C   0  0  0  0  0  0  0  0  0  0  0  0
   -9.9157   -6.7485    0.0000 C   0  0  0  0  0  0  0  0  0  0  0  0
  -10.0725   -5.2567    0.0000 C   0  0  0  0  0  0  0  0  0  0  0  0
  -11.4428   -4.6466    0.0000 C   0  0  0  0  0  0  0  0  0  0  0  0
  -12.6564   -5.5283    0.0000 C   0  0  0  0  0  0  0  0  0  0  0  0
  -12.4996   -7.0201    0.0000 C   0  0  0  0  0  0  0  0  0  0  0  0
  -11.1292   -7.6302    0.0000 C   0  0  0  0  0  0  0  0  0  0  0  0
   -1.9105   -6.5036    0.0000 C   0  0  0  0  0  0  0  0  0  0  0  0
   -1.1605   -7.8027    0.0000 O   0  0  0  0  0  0  0  0  0  0  0  0
   -0.9068   -5.3889    0.0000 O   0  0  0  0  0  0  0  0  0  0  0  0
   -0.7500   -3.8971    0.0000 C   0  0  0  0  0  0  0  0  0  0  0  0
  1  2  2  0
  2  3  1  0
  3  4  1  0
  5  4  1  6
  5  6  1  0
  6  7  1  0
  7  8  1  1
  8  9  1  0
  9 10  1  0
 10 11  1  0
 11 12  2  0
 12 13  1  0
 13 14  2  0
 14 15  1  0
 15 16  2  0
 10 17  1  0
 18 17  1  6
 18 19  1  0
 19 20  1  1
 20 21  1  0
 21 22  2  0
 21 23  1  0
 23 24  1  0
 24 25  2  0
 25 26  1  0
 26 27  1  0
 27 28  1  0
 28 29  2  0
 29 30  1  0
 30 31  2  0
 31 32  1  0
 32 33  2  0
 25 34  1  0
 34 35  1  0
 35 36  1  0
 36 37  1  0
 37 38  2  0
 38 39  1  0
 39 40  2  0
 40 41  1  0
 41 42  2  0
 34 43  2  0
 43 44  1  0
 44 45  1  0
 45 46  1  0
 46 47  2  0
 47 48  1  0
 48 49  2  0
 49 50  1  0
 50 51  2  0
 43 52  1  0
 52 53  1  0
 53 54  2  0
 54 55  1  0
 55 56  2  0
 56 57  1  0
 57 58  1  0
 58 59  1  0
 59 60  2  0
 60 61  1  0
 61 62  2  0
 62 63  1  0
 63 64  2  0
 56 65  1  0
 65 66  1  0
 66 67  1  0
 67 68  1  0
 68 69  2  0
 69 70  1  0
 70 71  2  0
 71 72  1  0
 72 73  2  0
 65 74  2  0
 74 75  1  0
 75 76  1  0
 76 77  1  0
 77 78  2  0
 78 79  1  0
 79 80  2  0
 80 81  1  0
 81 82  2  0
 54 83  1  0
 83 84  2  0
 83 85  1  0
 86 85  1  6
 86  5  1  0
 18  7  1  0
 86 19  1  0
 16 11  1  0
 52 23  2  0
 74 53  1  0
 82 77  1  0
 33 28  1  0
 42 37  1  0
 51 46  1  0
 64 59  1  0
 73 68  1  0
M  END
$$$$
8
     RDKit          2D

 83 94  0  0  0  0  0  0  0  0999 V2000
    5.0875   -1.0008    0.0000 O   0  0  0  0  0  0  0  0  0  0  0  0
    4.3375   -2.2998    0.0000 C   0  0  0  0  0  0  0  0  0  0  0  0
    2.8703   -1.9880    0.0000 O   0  0  0  0  0  0  0  0  0  0  0  0
    1.5000   -2.5981    0.0000 C   0  0  0  0  0  0  0  0  0  0  0  0
    0.7500   -1.2990    0.0000 C   0  0  0  0  0  0  0  0  0  0  0  0
    1.5000    0.0000    0.0000 O   0  0  0  0  0  0  0  0  0  0  0  0
    0.7500    1.2990    0.0000 C   0  0  0  0  0  0  0  0  0  0  0  0
    1.5000    2.5981    0.0000 C   0  0  0  0  0  0  0  0  0  0  0  0
    3.0000    2.5981    0.0000 C   0  0  0  0  0  0  0  0  0  0  0  0
    3.7500    3.8971    0.0000 C   0  0  0  0  0  0  0  0  0  0  0  0
    3.0000    5.1962    0.0000 C   0  0  0  0  0  0  0  0  0  0  0  0
    1.5000    5.1962    0.0000 C   0  0  0  0  0  0  0  0  0  0  0  0
    0.7500    3.8971    0.0000 C   0  0  0  0  0  0  0  0  0  0  0  0
   -0.7500    1.2990    0.0000 O   0  0  0  0  0  0  0  0  0  0  0  0
   -1.5000    0.0000    0.0000 C   0  0  0  0  0  0  0  0  0  0  0  0
   -0.7500   -1.2990    0.0000 C   0  0  0  0  0  0  0  0  0  0  0  0
   -1.5000   -2.5981    0.0000 O   0  0  0  0  0  0  0  0  0  0  0  0
   -0.7500   -3.8971    0.0000 C   0  0  0  0  0  0  0  0  0  0  0  0
   -1.5000   -5.1962    0.0000 O   0  0  0  0  0  0  0  0  0  0  0  0
    0.7500   -3.8971    0.0000 C   0  0  0  0  0  0  0  0  0  0  0  0
    0.9068   -5.3889    0.0000 O   0  0  0  0  0  0  0  0  0  0  0  0
    1.9105   -6.5036    0.0000 C   0  0  0  0  0  0  0  0  0  0  0  0
    1.1605   -7.8027    0.0000 O   0  0  0  0  0  0  0  0  0  0  0  0
    3.3777   -6.8155    0.0000 C   0  0  0  0  0  0  0  0  0  0  0  0
    3.2209   -8.3073    0.0000 C   0  0  0  0  0  0  0  0  0  0  0  0
    4.4344   -9.1889    0.0000 C   0  0  0  0  0  0  0  0  0  0  0  0
    4.2777  -10.6807    0.0000 O   0  0  0  0  0  0  0  0  0  0  0  0
    2.9073  -11.2908    0.0000 C   0  0  0  0  0  0  0  0  0  0  0  0
    2.7505  -12.7826    0.0000 C   0  0  0  0  0  0  0  0  0  0  0  0
    1.3802  -13.3927    0.0000 C   0  0  0  0  0  0  0  0  0  0  0  0
    1.2234  -14.8845    0.0000 C   0  0  0  0  0  0  0  0  0  0  0  0
    2.4370  -15.7662    0.0000 C   0  0  0  0  0  0  0  0  0  0  0  0
    3.8073  -15.1561    0.0000 C   0  0  0  0  0  0  0  0  0  0  0  0
    3.9641  -13.6643    0.0000 C   0  0  0  0  0  0  0  0  0  0  0  0
    5.8048   -8.5788    0.0000 C   0  0  0  0  0  0  0  0  0  0  0  0
    7.0183   -9.4605    0.0000 O   0  0  0  0  0  0  0  0  0  0  0  0
    6.8615  -10.9523    0.0000 C   0  0  0  0  0  0  0  0  0  0  0  0
    8.0750  -11.8340    0.0000 C   0  0  0  0  0  0  0  0  0  0  0  0
    7.9182  -13.3258    0.0000 C   0  0  0  0  0  0  0  0  0  0  0  0
    9.1318  -14.2074    0.0000 C   0  0  0  0  0  0  0  0  0  0  0  0
   10.5021  -13.5973    0.0000 C   0  0  0  0  0  0  0  0  0  0  0  0
   10.6589  -12.1055    0.0000 C   0  0  0  0  0  0  0  0  0  0  0  0
    9.4453  -11.2239    0.0000 C   0  0  0  0  0  0  0  0  0  0  0  0
    5.9616   -7.0871    0.0000 C   0  0  0  0  0  0  0  0  0  0  0  0
    7.3319   -6.4769    0.0000 O   0  0  0  0  0  0  0  0  0  0  0  0
    8.5454   -7.3586    0.0000 C   0  0  0  0  0  0  0  0  0  0  0  0
    9.9157   -6.7485    0.0000 C   0  0  0  0  0  0  0  0  0  0  0  0
   10.0725   -5.2567    0.0000 C   0  0  0  0  0  0  0  0  0  0  0  0
   11.4428   -4.6466    0.0000 C   0  0  0  0  0  0  0  0  0  0  0  0
   12.6564   -5.5283    0.0000 C   0  0  0  0  0  0  0  0  0  0  0  0
   12.4996   -7.0201    0.0000 C   0  0  0  0  0  0  0  0  0  0  0  0
   11.1292   -7.6302    0.0000 C   0  0  0  0  0  0  0  0  0  0  0  0
    4.7480   -6.2054    0.0000 C   0  0  0  0  0  0  0  0  0  0  0  0
    5.4980   -4.9063    0.0000 C   0  0  0  0  0  0  0  0  0  0  0  0
    5.3412   -3.4146    0.0000 C   0  0  0  0  0  0  0  0  0  0  0  0
    6.5548   -2.5329    0.0000 C   0  0  0  0  0  0  0  0  0  0  0  0
    7.9251   -3.1430    0.0000 C   0  0  0  0  0  0  0  0  0  0  0  0
    9.1386   -2.2613    0.0000 O   0  0  0  0  0  0  0  0  0  0  0  0
   10.5089   -2.8714    0.0000 C   0  0  0  0  0  0  0  0  0  0  0  0
   11.7224   -1.9897    0.0000 C   0  0  0  0  0  0  0  0  0  0  0  0
   13.0928   -2.5998    0.0000 C   0  0  0  0  0  0  0  0  0  0  0  0
   14.3063   -1.7182    0.0000 C   0  0  0  0  0  0  0  0  0  0  0  0
   14.1495   -0.2264    0.0000 C   0  0  0  0  0  0  0  0  0  0  0  0
   12.7792    0.3837    0.0000 C   0  0  0  0  0  0  0  0  0  0  0  0
   11.5657   -0.4979    0.0000 C   0  0  0  0  0  0  0  0  0  0  0  0
    8.0819   -4.6348    0.0000 C   0  0  0  0  0  0  0  0  0  0  0  0
    9.4522   -5.2449    0.0000 O   0  0  0  0  0  0  0  0  0  0  0  0
   10.6657   -4.3632    0.0000 C   0  0  0  0  0  0  0  0  0  0  0  0
   12.0360   -4.9733    0.0000 C   0  0  0  0  0  0  0  0  0  0  0  0
   12.1928   -6.4651    0.0000 C   0  0  0  0  0  0  0  0  0  0  0  0
   13.5631   -7.0752    0.0000 C   0  0  0  0  0  0  0  0  0  0  0  0
   14.7767   -6.1935    0.0000 C   0  0  0  0  0  0  0  0  0  0  0  0
   14.6199   -4.7017    0.0000 C   0  0  0  0  0  0  0  0  0  0  0  0
   13.2496   -4.0916    0.0000 C   0  0  0  0  0  0  0  0  0  0  0  0
    6.8683   -5.5164    0.0000 C   0  0  0  0  0  0  0  0  0  0  0  0
    7.0251   -7.0082    0.0000 O   0  0  0  0  0  0  0  0  0  0  0  0
    8.3955   -7.6183    0.0000 C   0  0  0  0  0  0  0  0  0  0  0  0
    8.5522   -9.1101    0.0000 C   0  0  0  0  0  0  0  0  0  0  0  0
    7.3387   -9.9918    0.0000 C   0  0  0  0  0  0  0  0  0  0  0  0
    7.4955  -11.4836    0.0000 C   0  0  0  0  0  0  0  0  0  0  0  0
    8.8658  -12.0937    0.0000 C   0  0  0  0  0  0  0  0  0  0  0  0
   10.0794  -11.2120    0.0000 C   0  0  0  0  0  0  0  0  0  0  0  0
    9.9226   -9.7202    0.0000 C   0  0  0  0  0  0  0  0  0  0  0  0
  1  2  2  0
  2  3  1  0
  4  3  1  6
  4  5  1  0
  5  6  1  1
  6  7  1  0
  7  8  1  0
  8  9  2  0
  9 10  1  0
 10 11  2  0
 11 12  1  0
 12 13  2  0
  7 14  1  0
 14 15  1  0
 16 15  1  6
 16 17  1  0
 17 18  1  0
 18 19  1  0
 18 20  1  0
 20 21  1  1
 21 22  1  0
 22 23  2  0
 22 24  1  0
 24 25  1  0
 25 26  2  0
 26 27  1  0
 27 28  1  0
 28 29  1  0
 29 30  2  0
 30 31  1  0
 31 32  2  0
 32 33  1  0
 33 34  2  0
 26 35  1  0
 35 36  1  0
 36 37  1  0
 37 38  1  0
 38 39  2  0
 39 40  1  0
 40 41  2  0
 41 42  1  0
 42 43  2  0
 35 44  2  0
 44 45  1  0
 45 46  1  0
 46 47  1  0
 47 48  2  0
 48 49  1  0
 49 50  2  0
 50 51  1  0
 51 52  2  0
 44 53  1  0
 53 54  1  0
 54 55  2  0
 55 56  1  0
 56 57  2  0
 57 58  1  0
 58 59  1  0
 59 60  1  0
 60 61  2  0
 61 62  1  0
 62 63  2  0
 63 64  1  0
 64 65  2  0
 57 66  1  0
 66 67  1  0
 67 68  1  0
 68 69  1  0
 69 70  2  0
 70 71  1  0
 71 72  2  0
 72 73  1  0
 73 74  2  0
 66 75  2  0
 75 76  1  0
 76 77  1  0
 77 78  1  0
 78 79  2  0
 79 80  1  0
 80 81  2  0
 81 82  1  0
 82 83  2  0
 55  2  1  0
 65 60  1  0
 74 69  1  0
 83 78  1  0
 20  4  1  0
 53 24  2  0
 75 54  1  0
 16  5  1  0
 34 29  1  0
 43 38  1  0
 52 47  1  0
 13  8  1  0
M  END
$$$$
18
     RDKit          2D

 89100  0  0  0  0  0  0  0  0999 V2000
    3.7500   -3.8971    0.0000 N   0  0  0  0  0  0  0  0  0  0  0  0
    3.0000   -5.1962    0.0000 C   0  0  0  0  0  0  0  0  0  0  0  0
    1.5000   -5.1962    0.0000 O   0  0  0  0  0  0  0  0  0  0  0  0
    0.7500   -3.8971    0.0000 C   0  0  0  0  0  0  0  0  0  0  0  0
    1.5000   -2.5981    0.0000 O   0  0  0  0  0  0  0  0  0  0  0  0
    0.7500   -1.2990    0.0000 C   0  0  0  0  0  0  0  0  0  0  0  0
    1.5000    0.0000    0.0000 C   0  0  0  0  0  0  0  0  0  0  0  0
    0.7500    1.2990    0.0000 O   0  0  0  0  0  0  0  0  0  0  0  0
   -0.7500    1.2990    0.0000 C   0  0  0  0  0  0  0  0  0  0  0  0
   -1.5000    2.5981    0.0000 C   0  0  0  0  0  0  0  0  0  0  0  0
   -0.7500    3.8971    0.0000 C   0  0  0  0  0  0  0  0  0  0  0  0
   -1.5000    5.1962    0.0000 C   0  0  0  0  0  0  0  0  0  0  0  0
   -3.0000    5.1962    0.0000 C   0  0  0  0  0  0  0  0  0  0  0  0
   -3.7500    3.8971    0.0000 C   0  0  0  0  0  0  0  0  0  0  0  0
   -3.0000    2.5981    0.0000 C   0  0  0  0  0  0  0  0  0  0  0  0
   -1.5000    0.0000    0.0000 O   0  0  0  0  0  0  0  0  0  0  0  0
   -0.7500   -1.2990    0.0000 C   0  0  0  0  0  0  0  0  0  0  0  0
   -1.5000   -2.5981    0.0000 C   0  0  0  0  0  0  0  0  0  0  0  0
   -2.8703   -1.9880    0.0000 O   0  0  0  0  0  0  0  0  0  0  0  0
   -4.3375   -2.2998    0.0000 C   0  0  0  0  0  0  0  0  0  0  0  0
   -5.0875   -1.0008    0.0000 O   0  0  0  0  0  0  0  0  0  0  0  0
   -5.3412   -3.4146    0.0000 C   0  0  0  0  0  0  0  0  0  0  0  0
   -6.5548   -2.5329    0.0000 C   0  0  0  0  0  0  0  0  0  0  0  0
   -7.9251   -3.1430    0.0000 C   0  0  0  0  0  0  0  0  0  0  0  0
   -9.1386   -2.2613    0.0000 O   0  0  0  0  0  0  0  0  0  0  0  0
   -8.9818   -0.7695    0.0000 C   0  0  0  0  0  0  0  0  0  0  0  0
  -10.1953    0.1122    0.0000 C   0  0  0  0  0  0  0  0  0  0  0  0
  -10.0385    1.6039    0.0000 C   0  0  0  0  0  0  0  0  0  0  0  0
  -11.2521    2.4856    0.0000 C   0  0  0  0  0  0  0  0  0  0  0  0
  -12.6224    1.8755    0.0000 C   0  0  0  0  0  0  0  0  0  0  0  0
  -12.7792    0.3837    0.0000 C   0  0  0  0  0  0  0  0  0  0  0  0
  -11.5657   -0.4979    0.0000 C   0  0  0  0  0  0  0  0  0  0  0  0
   -8.0819   -4.6348    0.0000 C   0  0  0  0  0  0  0  0  0  0  0  0
   -9.4522   -5.2449    0.0000 O   0  0  0  0  0  0  0  0  0  0  0  0
  -10.6657   -4.3632    0.0000 C   0  0  0  0  0  0  0  0  0  0  0  0
  -12.0360   -4.9733    0.0000 C   0  0  0  0  0  0  0  0  0  0  0  0
  -13.2496   -4.0916    0.0000 C   0  0  0  0  0  0  0  0  0  0  0  0
  -14.6199   -4.7017    0.0000 C   0  0  0  0  0  0  0  0  0  0  0  0
  -14.7767   -6.1935    0.0000 C   0  0  0  0  0  0  0  0  0  0  0  0
  -13.5631   -7.0752    0.0000 C   0  0  0  0  0  0  0  0  0  0  0  0
  -12.1928   -6.4651    0.0000 C   0  0  0  0  0  0  0  0  0  0  0  0
   -6.8683   -5.5164    0.0000 C   0  0  0  0  0  0  0  0  0  0  0  0
   -7.0251   -7.0082    0.0000 O   0  0  0  0  0  0  0  0  0  0  0  0
   -8.3955   -7.6183    0.0000 C   0  0  0  0  0  0  0  0  0  0  0  0
   -8.5522   -9.1101    0.0000 C   0  0  0  0  0  0  0  0  0  0  0  0
   -9.9226   -9.7202    0.0000 C   0  0  0  0  0  0  0  0  0  0  0  0
  -10.0794  -11.2120    0.0000 C   0  0  0  0  0  0  0  0  0  0  0  0
   -8.8658  -12.0937    0.0000 C   0  0  0  0  0  0  0  0  0  0  0  0
   -7.4955  -11.4836    0.0000 C   0  0  0  0  0  0  0  0  0  0  0  0
   -7.3387   -9.9918    0.0000 C   0  0  0  0  0  0  0  0  0  0  0  0
   -5.4980   -4.9063    0.0000 C   0  0  0  0  0  0  0  0  0  0  0  0
   -4.7480   -6.2054    0.0000 C   0  0  0  0  0  0  0  0  0  0  0  0
   -3.3777   -6.8155    0.0000 C   0  0  0  0  0  0  0  0  0  0  0  0
   -3.2209   -8.3073    0.0000 C   0  0  0  0  0  0  0  0  0  0  0  0
   -4.4344   -9.1889    0.0000 C   0  0  0  0  0  0  0  0  0  0  0  0
   -4.2777  -10.6807    0.0000 O   0  0  0  0  0  0  0  0  0  0  0  0
   -5.4912  -11.5624    0.0000 C   0  0  0  0  0  0  0  0  0  0  0  0
   -5.3344  -13.0542    0.0000 C   0  0  0  0  0  0  0  0  0  0  0  0
   -6.5479  -13.9359    0.0000 C   0  0  0  0  0  0  0  0  0  0  0  0
   -6.3911  -15.4276    0.0000 C   0  0  0  0  0  0  0  0  0  0  0  0
   -5.0208  -16.0378    0.0000 C   0  0  0  0  0  0  0  0  0  0  0  0
   -3.8073  -15.1561    0.0000 C   0  0  0  0  0  0  0  0  0  0  0  0
   -3.9641  -13.6643    0.0000 C   0  0  0  0  0  0  0  0  0  0  0  0
   -5.8048   -8.5788    0.0000 C   0  0  0  0  0  0  0  0  0  0  0  0
   -7.0183   -9.4605    0.0000 O   0  0  0  0  0  0  0  0  0  0  0  0
   -6.8615  -10.9523    0.0000 C   0  0  0  0  0  0  0  0  0  0  0  0
   -8.0750  -11.8340    0.0000 C   0  0  0  0  0  0  0  0  0  0  0  0
   -9.4453  -11.2239    0.0000 C   0  0  0  0  0  0  0  0  0  0  0  0
  -10.6589  -12.1055    0.0000 C   0  0  0  0  0  0  0  0  0  0  0  0
  -10.5021  -13.5973    0.0000 C   0  0  0  0  0  0  0  0  0  0  0  0
   -9.1318  -14.2074    0.0000 C   0  0  0  0  0  0  0  0  0  0  0  0
   -7.9182  -13.3258    0.0000 C   0  0  0  0  0  0  0  0  0  0  0  0
   -5.9616   -7.0871    0.0000 C   0  0  0  0  0  0  0  0  0  0  0  0
   -7.3319   -6.4769    0.0000 O   0  0  0  0  0  0  0  0  0  0  0  0
   -8.5454   -7.3586    0.0000 C   0  0  0  0  0  0  0  0  0  0  0  0
   -9.9157   -6.7485    0.0000 C   0  0  0  0  0  0  0  0  0  0  0  0
  -10.0725   -5.2567    0.0000 C   0  0  0  0  0  0  0  0  0  0  0  0
  -11.4428   -4.6466    0.0000 C   0  0  0  0  0  0  0  0  0  0  0  0
  -12.6564   -5.5283    0.0000 C   0  0  0  0  0  0  0  0  0  0  0  0
  -12.4996   -7.0201    0.0000 C   0  0  0  0  0  0  0  0  0  0  0  0
  -11.1292   -7.6302    0.0000 C   0  0  0  0  0  0  0  0  0  0  0  0
   -1.9105   -6.5036    0.0000 C   0  0  0  0  0  0  0  0  0  0  0  0
   -1.1605   -7.8027    0.0000 O   0  0  0  0  0  0  0  0  0  0  0  0
   -0.9068   -5.3889    0.0000 O   0  0  0  0  0  0  0  0  0  0  0  0
   -0.7500   -3.8971    0.0000 C   0  0  0  0  0  0  0  0  0  0  0  0
    3.7500   -6.4952    0.0000 C   0  0  0  0  0  0  0  0  0  0  0  0
    4.5000   -7.7942    0.0000 Cl  0  0  0  0  0  0  0  0  0  0  0  0
    5.0490   -5.7452    0.0000 Cl  0  0  0  0  0  0  0  0  0  0  0  0
    2.4510   -7.2452    0.0000 Cl  0  0  0  0  0  0  0  0  0  0  0  0
  1  2  2  0
  2  3  1  0
  4  3  1  6
  4  5  1  0
  5  6  1  0
  6  7  1  1
  7  8  1  0
  8  9  1  0
  9 10  1  0
 10 11  2  0
 11 12  1  0
 12 13  2  0
 13 14  1  0
 14 15  2  0
  9 16  1  0
 17 16  1  6
 17 18  1  0
 18 19  1  1
 19 20  1  0
 20 21  2  0
 20 22  1  0
 22 23  1  0
 23 24  2  0
 24 25  1  0
 25 26  1  0
 26 27  1  0
 27 28  2  0
 28 29  1  0
 29 30  2  0
 30 31  1  0
 31 32  2  0
 24 33  1  0
 33 34  1  0
 34 35  1  0
 35 36  1  0
 36 37  2  0
 37 38  1  0
 38 39  2  0
 39 40  1  0
 40 41  2  0
 33 42  2  0
 42 43  1  0
 43 44  1  0
 44 45  1  0
 45 46  2  0
 46 47  1  0
 47 48  2  0
 48 49  1  0
 49 50  2  0
 42 51  1  0
 51 52  1  0
 52 53  2  0
 53 54  1  0
 54 55  2  0
 55 56  1  0
 56 57  1  0
 57 58  1  0
 58 59  2  0
 59 60  1  0
 60 61  2  0
 61 62  1  0
 62 63  2  0
 55 64  1  0
 64 65  1  0
 65 66  1  0
 66 67  1  0
 67 68  2  0
 68 69  1  0
 69 70  2  0
 70 71  1  0
 71 72  2  0
 64 73  2  0
 73 74  1  0
 74 75  1  0
 75 76  1  0
 76 77  2  0
 77 78  1  0
 78 79  2  0
 79 80  1  0
 80 81  2  0
 53 82  1  0
 82 83  2  0
 82 84  1  0
 85 84  1  6
  2 86  1  0
 86 87  1  0
 86 88  1  0
 86 89  1  0
 85  4  1  0
 17  6  1  0
 85 18  1  0
 15 10  1  0
 51 22  2  0
 73 52  1  0
 81 76  1  0
 32 27  1  0
 41 36  1  0
 50 45  1  0
 63 58  1  0
 72 67  1  0
M  END
$$$$
20
     RDKit          2D

115130  0  0  0  0  0  0  0  0999 V2000
    3.7500   -3.8971    0.0000 O   0  0  0  0  0  0  0  0  0  0  0  0
    3.0000   -5.1962    0.0000 C   0  0  0  0  0  0  0  0  0  0  0  0
    1.5000   -5.1962    0.0000 O   0  0  0  0  0  0  0  0  0  0  0  0
    0.7500   -3.8971    0.0000 C   0  0  0  0  0  0  0  0  0  0  0  0
    1.5000   -2.5981    0.0000 O   0  0  0  0  0  0  0  0  0  0  0  0
    0.7500   -1.2990    0.0000 C   0  0  0  0  0  0  0  0  0  0  0  0
    1.5000    0.0000    0.0000 C   0  0  0  0  0  0  0  0  0  0  0  0
    0.7500    1.2990    0.0000 O   0  0  0  0  0  0  0  0  0  0  0  0
   -0.7500    1.2990    0.0000 C   0  0  0  0  0  0  0  0  0  0  0  0
   -1.5000    2.5981    0.0000 C   0  0  0  0  0  0  0  0  0  0  0  0
   -0.7500    3.8971    0.0000 C   0  0  0  0  0  0  0  0  0  0  0  0
   -1.5000    5.1962    0.0000 C   0  0  0  0  0  0  0  0  0  0  0  0
   -3.0000    5.1962    0.0000 C   0  0  0  0  0  0  0  0  0  0  0  0
   -3.7500    3.8971    0.0000 C   0  0  0  0  0  0  0  0  0  0  0  0
   -3.0000    2.5981    0.0000 C   0  0  0  0  0  0  0  0  0  0  0  0
   -1.5000    0.0000    0.0000 O   0  0  0  0  0  0  0  0  0  0  0  0
   -0.7500   -1.2990    0.0000 C   0  0  0  0  0  0  0  0  0  0  0  0
   -1.5000   -2.5981    0.0000 C   0  0  0  0  0  0  0  0  0  0  0  0
   -2.8703   -1.9880    0.0000 O   0  0  0  0  0  0  0  0  0  0  0  0
   -4.3375   -2.2998    0.0000 C   0  0  0  0  0  0  0  0  0  0  0  0
   -5.0875   -1.0008    0.0000 O   0  0  0  0  0  0  0  0  0  0  0  0
   -5.3412   -3.4146    0.0000 C   0  0  0  0  0  0  0  0  0  0  0  0
   -6.5548   -2.5329    0.0000 C   0  0  0  0  0  0  0  0  0  0  0  0
   -7.9251   -3.1430    0.0000 C   0  0  0  0  0  0  0  0  0  0  0  0
   -9.1386   -2.2613    0.0000 O   0  0  0  0  0  0  0  0  0  0  0  0
   -8.9818   -0.7695    0.0000 C   0  0  0  0  0  0  0  0  0  0  0  0
  -10.1953    0.1122    0.0000 C   0  0  0  0  0  0  0  0  0  0  0  0
  -10.0385    1.6039    0.0000 C   0  0  0  0  0  0  0  0  0  0  0  0
  -11.2521    2.4856    0.0000 C   0  0  0  0  0  0  0  0  0  0  0  0
  -12.6224    1.8755    0.0000 C   0  0  0  0  0  0  0  0  0  0  0  0
  -12.7792    0.3837    0.0000 C   0  0  0  0  0  0  0  0  0  0  0  0
  -11.5657   -0.4979    0.0000 C   0  0  0  0  0  0  0  0  0  0  0  0
   -8.0819   -4.6348    0.0000 C   0  0  0  0  0  0  0  0  0  0  0  0
   -9.4522   -5.2449    0.0000 O   0  0  0  0  0  0  0  0  0  0  0  0
  -10.6657   -4.3632    0.0000 C   0  0  0  0  0  0  0  0  0  0  0  0
  -12.0360   -4.9733    0.0000 C   0  0  0  0  0  0  0  0  0  0  0  0
  -13.2496   -4.0916    0.0000 C   0  0  0  0  0  0  0  0  0  0  0  0
  -14.6199   -4.7017    0.0000 C   0  0  0  0  0  0  0  0  0  0  0  0
  -14.7767   -6.1935    0.0000 C   0  0  0  0  0  0  0  0  0  0  0  0
  -13.5631   -7.0752    0.0000 C   0  0  0  0  0  0  0  0  0  0  0  0
  -12.1928   -6.4651    0.0000 C   0  0  0  0  0  0  0  0  0  0  0  0
   -6.8683   -5.5164    0.0000 C   0  0  0  0  0  0  0  0  0  0  0  0
   -7.0251   -7.0082    0.0000 O   0  0  0  0  0  0  0  0  0  0  0  0
   -8.3955   -7.6183    0.0000 C   0  0  0  0  0  0  0  0  0  0  0  0
   -8.5522   -9.1101    0.0000 C   0  0  0  0  0  0  0  0  0  0  0  0
   -7.3387   -9.9918    0.0000 C   0  0  0  0  0  0  0  0  0  0  0  0
   -7.4955  -11.4836    0.0000 C   0  0  0  0  0  0  0  0  0  0  0  0
   -8.8658  -12.0937    0.0000 C   0  0  0  0  0  0  0  0  0  0  0  0
  -10.0794  -11.2120    0.0000 C   0  0  0  0  0  0  0  0  0  0  0  0
   -9.9226   -9.7202    0.0000 C   0  0  0  0  0  0  0  0  0  0  0  0
   -5.4980   -4.9063    0.0000 C   0  0  0  0  0  0  0  0  0  0  0  0
   -4.7480   -6.2054    0.0000 C   0  0  0  0  0  0  0  0  0  0  0  0
   -3.3777   -6.8155    0.0000 C   0  0  0  0  0  0  0  0  0  0  0  0
   -3.2209   -8.3073    0.0000 C   0  0  0  0  0  0  0  0  0  0  0  0
   -4.4344   -9.1889    0.0000 C   0  0  0  0  0  0  0  0  0  0  0  0
   -4.2777  -10.6807    0.0000 O   0  0  0  0  0  0  0  0  0  0  0  0
   -5.4912  -11.5624    0.0000 C   0  0  0  0  0  0  0  0  0  0  0  0
   -5.3344  -13.0542    0.0000 C   0  0  0  0  0  0  0  0  0  0  0  0
   -6.5479  -13.9359    0.0000 C   0  0  0  0  0  0  0  0  0  0  0  0
   -6.3911  -15.4276    0.0000 C   0  0  0  0  0  0  0  0  0  0  0  0
   -5.0208  -16.0378    0.0000 C   0  0  0  0  0  0  0  0  0  0  0  0
   -3.8073  -15.1561    0.0000 C   0  0  0  0  0  0  0  0  0  0  0  0
   -3.9641  -13.6643    0.0000 C   0  0  0  0  0  0  0  0  0  0  0  0
   -5.8048   -8.5788    0.0000 C   0  0  0  0  0  0  0  0  0  0  0  0
   -7.0183   -9.4605    0.0000 O   0  0  0  0  0  0  0  0  0  0  0  0
   -6.8615  -10.9523    0.0000 C   0  0  0  0  0  0  0  0  0  0  0  0
   -8.0750  -11.8340    0.0000 C   0  0  0  0  0  0  0  0  0  0  0  0
   -9.4453  -11.2239    0.0000 C   0  0  0  0  0  0  0  0  0  0  0  0
  -10.6589  -12.1055    0.0000 C   0  0  0  0  0  0  0  0  0  0  0  0
  -10.5021  -13.5973    0.0000 C   0  0  0  0  0  0  0  0  0  0  0  0
   -9.1318  -14.2074    0.0000 C   0  0  0  0  0  0  0  0  0  0  0  0
   -7.9182  -13.3258    0.0000 C   0  0  0  0  0  0  0  0  0  0  0  0
   -5.9616   -7.0871    0.0000 C   0  0  0  0  0  0  0  0  0  0  0  0
   -7.3319   -6.4769    0.0000 O   0  0  0  0  0  0  0  0  0  0  0  0
   -8.5454   -7.3586    0.0000 C   0  0  0  0  0  0  0  0  0  0  0  0
   -9.9157   -6.7485    0.0000 C   0  0  0  0  0  0  0  0  0  0  0  0
  -10.0725   -5.2567    0.0000 C   0  0  0  0  0  0  0  0  0  0  0  0
  -11.4428   -4.6466    0.0000 C   0  0  0  0  0  0  0  0  0  0  0  0
  -12.6564   -5.5283    0.0000 C   0  0  0  0  0  0  0  0  0  0  0  0
  -12.4996   -7.0201    0.0000 C   0  0  0  0  0  0  0  0  0  0  0  0
  -11.1292   -7.6302    0.0000 C   0  0  0  0  0  0  0  0  0  0  0  0
   -1.9105   -6.5036    0.0000 C   0  0  0  0  0  0  0  0  0  0  0  0
   -1.1605   -7.8027    0.0000 O   0  0  0  0  0  0  0  0  0  0  0  0
   -0.9068   -5.3889    0.0000 O   0  0  0  0  0  0  0  0  0  0  0  0
   -0.7500   -3.8971    0.0000 C   0  0  0  0  0  0  0  0  0  0  0  0
    3.7500   -6.4952    0.0000 C   0  0  0  0  0  0  0  0  0  0  0  0
    3.0000   -7.7942    0.0000 C   0  0  0  0  0  0  0  0  0  0  0  0
    3.7500   -9.0933    0.0000 C   0  0  0  0  0  0  0  0  0  0  0  0
    3.0000  -10.3923    0.0000 O   0  0  0  0  0  0  0  0  0  0  0  0
    1.5000  -10.3923    0.0000 C   0  0  0  0  0  0  0  0  0  0  0  0
    0.7500  -11.6913    0.0000 C   0  0  0  0  0  0  0  0  0  0  0  0
   -0.7500  -11.6913    0.0000 C   0  0  0  0  0  0  0  0  0  0  0  0
   -1.5000  -12.9904    0.0000 C   0  0  0  0  0  0  0  0  0  0  0  0
   -0.7500  -14.2894    0.0000 C   0  0  0  0  0  0  0  0  0  0  0  0
    0.7500  -14.2894    0.0000 C   0  0  0  0  0  0  0  0  0  0  0  0
    1.5000  -12.9904    0.0000 C   0  0  0  0  0  0  0  0  0  0  0  0
    5.2500   -9.0933    0.0000 C   0  0  0  0  0  0  0  0  0  0  0  0
    6.0000  -10.3923    0.0000 O   0  0  0  0  0  0  0  0  0  0  0  0
    7.5000  -10.3923    0.0000 C   0  0  0  0  0  0  0  0  0  0  0  0
    8.2500  -11.6913    0.0000 C   0  0  0  0  0  0  0  0  0  0  0  0
    7.5000  -12.9904    0.0000 C   0  0  0  0  0  0  0  0  0  0  0  0
    8.2500  -14.2894    0.0000 C   0  0  0  0  0  0  0  0  0  0  0  0
    9.7500  -14.2894    0.0000 C   0  0  0  0  0  0  0  0  0  0  0  0
   10.5000  -12.9904    0.0000 C   0  0  0  0  0  0  0  0  0  0  0  0
    9.7500  -11.6913    0.0000 C   0  0  0  0  0  0  0  0  0  0  0  0
    6.0000   -7.7942    0.0000 C   0  0  0  0  0  0  0  0  0  0  0  0
    7.5000   -7.7942    0.0000 O   0  0  0  0  0  0  0  0  0  0  0  0
    8.2500   -6.4952    0.0000 C   0  0  0  0  0  0  0  0  0  0  0  0
    9.7500   -6.4952    0.0000 C   0  0  0  0  0  0  0  0  0  0  0  0
   10.5000   -7.7942    0.0000 C   0  0  0  0  0  0  0  0  0  0  0  0
   12.0000   -7.7942    0.0000 C   0  0  0  0  0  0  0  0  0  0  0  0
   12.7500   -6.4952    0.0000 C   0  0  0  0  0  0  0  0  0  0  0  0
   12.0000   -5.1962    0.0000 C   0  0  0  0  0  0  0  0  0  0  0  0
   10.5000   -5.1962    0.0000 C   0  0  0  0  0  0  0  0  0  0  0  0
    5.2500   -6.4952    0.0000 C   0  0  0  0  0  0  0  0  0  0  0  0
  1  2  2  0
  2  3  1  0
  4  3  1  1
  4  5  1  0
  5  6  1  0
  6  7  1  1
  7  8  1  0
  8  9  1  0
  9 10  1  0
 10 11  2  0
 11 12  1  0
 12 13  2  0
 13 14  1  0
 14 15  2  0
  9 16  1  0
 17 16  1  6
 17 18  1  0
 18 19  1  1
 19 20  1  0
 20 21  2  0
 20 22  1  0
 22 23  1  0
 23 24  2  0
 24 25  1  0
 25 26  1  0
 26 27  1  0
 27 28  2  0
 28 29  1  0
 29 30  2  0
 30 31  1  0
 31 32  2  0
 24 33  1  0
 33 34  1  0
 34 35  1  0
 35 36  1  0
 36 37  2  0
 37 38  1  0
 38 39  2  0
 39 40  1  0
 40 41  2  0
 33 42  2  0
 42 43  1  0
 43 44  1  0
 44 45  1  0
 45 46  2  0
 46 47  1  0
 47 48  2  0
 48 49  1  0
 49 50  2  0
 42 51  1  0
 51 52  1  0
 52 53  2  0
 53 54  1  0
 54 55  2  0
 55 56  1  0
 56 57  1  0
 57 58  1  0
 58 59  2  0
 59 60  1  0
 60 61  2  0
 61 62  1  0
 62 63  2  0
 55 64  1  0
 64 65  1  0
 65 66  1  0
 66 67  1  0
 67 68  2  0
 68 69  1  0
 69 70  2  0
 70 71  1  0
 71 72  2  0
 64 73  2  0
 73 74  1  0
 74 75  1  0
 75 76  1  0
 76 77  2  0
 77 78  1  0
 78 79  2  0
 79 80  1  0
 80 81  2  0
 53 82  1  0
 82 83  2  0
 82 84  1  0
 85 84  1  6
  2 86  1  0
 86 87  2  0
 87 88  1  0
 88 89  1  0
 89 90  1  0
 90 91  1  0
 91 92  2  0
 92 93  1  0
 93 94  2  0
 94 95  1  0
 95 96  2  0
 88 97  2  0
 97 98  1  0
 98 99  1  0
 99100  1  0
100101  2  0
101102  1  0
102103  2  0
103104  1  0
104105  2  0
 97106  1  0
106107  1  0
107108  1  0
108109  1  0
109110  2  0
110111  1  0
111112  2  0
112113  1  0
113114  2  0
106115  2  0
 85  4  1  0
115 86  1  0
 17  6  1  0
 85 18  1  0
 96 91  1  0
105100  1  0
114109  1  0
 15 10  1  0
 51 22  2  0
 73 52  1  0
 81 76  1  0
 32 27  1  0
 41 36  1  0
 50 45  1  0
 63 58  1  0
 72 67  1  0
M  END
$$$$
5
     RDKit          2D

108121  0  0  0  0  0  0  0  0999 V2000
    3.7500   -1.2990    0.0000 O   0  0  0  0  0  0  0  0  0  0  0  0
    3.0000   -2.5981    0.0000 C   0  0  0  0  0  0  0  0  0  0  0  0
    1.5000   -2.5981    0.0000 O   0  0  0  0  0  0  0  0  0  0  0  0
    0.7500   -1.2990    0.0000 C   0  0  0  0  0  0  0  0  0  0  0  0
    1.5000    0.0000    0.0000 O   0  0  0  0  0  0  0  0  0  0  0  0
    0.7500    1.2990    0.0000 C   0  0  0  0  0  0  0  0  0  0  0  0
    1.5000    2.5981    0.0000 C   0  0  0  0  0  0  0  0  0  0  0  0
    3.0000    2.5981    0.0000 O   0  0  0  0  0  0  0  0  0  0  0  0
   -0.7500    1.2990    0.0000 C   0  0  0  0  0  0  0  0  0  0  0  0
   -1.5000    2.5981    0.0000 O   0  0  0  0  0  0  0  0  0  0  0  0
   -1.5000    0.0000    0.0000 C   0  0  0  0  0  0  0  0  0  0  0  0
   -2.8703    0.6101    0.0000 O   0  0  0  0  0  0  0  0  0  0  0  0
   -4.3375    0.2982    0.0000 C   0  0  0  0  0  0  0  0  0  0  0  0
   -5.0875    1.5973    0.0000 O   0  0  0  0  0  0  0  0  0  0  0  0
   -5.3412   -0.8165    0.0000 C   0  0  0  0  0  0  0  0  0  0  0  0
   -6.5548    0.0652    0.0000 C   0  0  0  0  0  0  0  0  0  0  0  0
   -7.9251   -0.5449    0.0000 C   0  0  0  0  0  0  0  0  0  0  0  0
   -9.1386    0.3368    0.0000 O   0  0  0  0  0  0  0  0  0  0  0  0
   -8.9818    1.8286    0.0000 C   0  0  0  0  0  0  0  0  0  0  0  0
  -10.1953    2.7102    0.0000 C   0  0  0  0  0  0  0  0  0  0  0  0
  -10.0385    4.2020    0.0000 C   0  0  0  0  0  0  0  0  0  0  0  0
  -11.2521    5.0837    0.0000 C   0  0  0  0  0  0  0  0  0  0  0  0
  -12.6224    4.4736    0.0000 C   0  0  0  0  0  0  0  0  0  0  0  0
  -12.7792    2.9818    0.0000 C   0  0  0  0  0  0  0  0  0  0  0  0
  -11.5657    2.1001    0.0000 C   0  0  0  0  0  0  0  0  0  0  0  0
   -8.0819   -2.0367    0.0000 C   0  0  0  0  0  0  0  0  0  0  0  0
   -9.4522   -2.6468    0.0000 O   0  0  0  0  0  0  0  0  0  0  0  0
  -10.6657   -1.7651    0.0000 C   0  0  0  0  0  0  0  0  0  0  0  0
  -12.0360   -2.3752    0.0000 C   0  0  0  0  0  0  0  0  0  0  0  0
  -13.2496   -1.4935    0.0000 C   0  0  0  0  0  0  0  0  0  0  0  0
  -14.6199   -2.1036    0.0000 C   0  0  0  0  0  0  0  0  0  0  0  0
  -14.7767   -3.5954    0.0000 C   0  0  0  0  0  0  0  0  0  0  0  0
  -13.5631   -4.4771    0.0000 C   0  0  0  0  0  0  0  0  0  0  0  0
  -12.1928   -3.8670    0.0000 C   0  0  0  0  0  0  0  0  0  0  0  0
   -6.8683   -2.9184    0.0000 C   0  0  0  0  0  0  0  0  0  0  0  0
   -7.0251   -4.4102    0.0000 O   0  0  0  0  0  0  0  0  0  0  0  0
   -8.3955   -5.0203    0.0000 C   0  0  0  0  0  0  0  0  0  0  0  0
   -8.5522   -6.5120    0.0000 C   0  0  0  0  0  0  0  0  0  0  0  0
   -9.9226   -7.1221    0.0000 C   0  0  0  0  0  0  0  0  0  0  0  0
  -10.0794   -8.6139    0.0000 C   0  0  0  0  0  0  0  0  0  0  0  0
   -8.8658   -9.4956    0.0000 C   0  0  0  0  0  0  0  0  0  0  0  0
   -7.4955   -8.8855    0.0000 C   0  0  0  0  0  0  0  0  0  0  0  0
   -7.3387   -7.3937    0.0000 C   0  0  0  0  0  0  0  0  0  0  0  0
   -5.4980   -2.3083    0.0000 C   0  0  0  0  0  0  0  0  0  0  0  0
   -4.7480   -3.6073    0.0000 C   0  0  0  0  0  0  0  0  0  0  0  0
   -3.3777   -4.2174    0.0000 C   0  0  0  0  0  0  0  0  0  0  0  0
   -3.2209   -5.7092    0.0000 C   0  0  0  0  0  0  0  0  0  0  0  0
   -4.4344   -6.5909    0.0000 C   0  0  0  0  0  0  0  0  0  0  0  0
   -4.2777   -8.0826    0.0000 O   0  0  0  0  0  0  0  0  0  0  0  0
   -5.4912   -8.9643    0.0000 C   0  0  0  0  0  0  0  0  0  0  0  0
   -5.3344  -10.4561    0.0000 C   0  0  0  0  0  0  0  0  0  0  0  0
   -6.5479  -11.3378    0.0000 C   0  0  0  0  0  0  0  0  0  0  0  0
   -6.3911  -12.8296    0.0000 C   0  0  0  0  0  0  0  0  0  0  0  0
   -5.0208  -13.4397    0.0000 C   0  0  0  0  0  0  0  0  0  0  0  0
   -3.8073  -12.5580    0.0000 C   0  0  0  0  0  0  0  0  0  0  0  0
   -3.9641  -11.0662    0.0000 C   0  0  0  0  0  0  0  0  0  0  0  0
   -5.8048   -5.9808    0.0000 C   0  0  0  0  0  0  0  0  0  0  0  0
   -7.0183   -6.8624    0.0000 O   0  0  0  0  0  0  0  0  0  0  0  0
   -6.8615   -8.3542    0.0000 C   0  0  0  0  0  0  0  0  0  0  0  0
   -8.0750   -9.2359    0.0000 C   0  0  0  0  0  0  0  0  0  0  0  0
   -9.4453   -8.6258    0.0000 C   0  0  0  0  0  0  0  0  0  0  0  0
  -10.6589   -9.5075    0.0000 C   0  0  0  0  0  0  0  0  0  0  0  0
  -10.5021  -10.9993    0.0000 C   0  0  0  0  0  0  0  0  0  0  0  0
   -9.1318  -11.6094    0.0000 C   0  0  0  0  0  0  0  0  0  0  0  0
   -7.9182  -10.7277    0.0000 C   0  0  0  0  0  0  0  0  0  0  0  0
   -5.9616   -4.4890    0.0000 C   0  0  0  0  0  0  0  0  0  0  0  0
   -7.3319   -3.8789    0.0000 O   0  0  0  0  0  0  0  0  0  0  0  0
   -8.5454   -4.7606    0.0000 C   0  0  0  0  0  0  0  0  0  0  0  0
   -9.9157   -4.1504    0.0000 C   0  0  0  0  0  0  0  0  0  0  0  0
  -10.0725   -2.6587    0.0000 C   0  0  0  0  0  0  0  0  0  0  0  0
  -11.4428   -2.0486    0.0000 C   0  0  0  0  0  0  0  0  0  0  0  0
  -12.6564   -2.9302    0.0000 C   0  0  0  0  0  0  0  0  0  0  0  0
  -12.4996   -4.4220    0.0000 C   0  0  0  0  0  0  0  0  0  0  0  0
  -11.1292   -5.0321    0.0000 C   0  0  0  0  0  0  0  0  0  0  0  0
   -1.9105   -3.9055    0.0000 C   0  0  0  0  0  0  0  0  0  0  0  0
   -1.1605   -5.2046    0.0000 O   0  0  0  0  0  0  0  0  0  0  0  0
   -0.9068   -2.7908    0.0000 O   0  0  0  0  0  0  0  0  0  0  0  0
   -0.7500   -1.2990    0.0000 C   0  0  0  0  0  0  0  0  0  0  0  0
    3.7500   -3.8971    0.0000 C   0  0  0  0  0  0  0  0  0  0  0  0
    3.0000   -5.1962    0.0000 C   0  0  0  0  0  0  0  0  0  0  0  0
    3.7500   -6.4952    0.0000 C   0  0  0  0  0  0  0  0  0  0  0  0
    3.0000   -7.7942    0.0000 O   0  0  0  0  0  0  0  0  0  0  0  0
    1.5000   -7.7942    0.0000 C   0  0  0  0  0  0  0  0  0  0  0  0
    0.7500   -9.0933    0.0000 C   0  0  0  0  0  0  0  0  0  0  0  0
   -0.7500   -9.0933    0.0000 C   0  0  0  0  0  0  0  0  0  0  0  0
   -1.5000  -10.3923    0.0000 C   0  0  0  0  0  0  0  0  0  0  0  0
   -0.7500  -11.6913    0.0000 C   0  0  0  0  0  0  0  0  0  0  0  0
    0.7500  -11.6913    0.0000 C   0  0  0  0  0  0  0  0  0  0  0  0
    1.5000  -10.3923    0.0000 C   0  0  0  0  0  0  0  0  0  0  0  0
    5.2500   -6.4952    0.0000 C   0  0  0  0  0  0  0  0  0  0  0  0
    6.0000   -7.7942    0.0000 O   0  0  0  0  0  0  0  0  0  0  0  0
    7.5000   -7.7942    0.0000 C   0  0  0  0  0  0  0  0  0  0  0  0
    8.2500   -9.0933    0.0000 C   0  0  0  0  0  0  0  0  0  0  0  0
    7.5000  -10.3923    0.0000 C   0  0  0  0  0  0  0  0  0  0  0  0
    8.2500  -11.6913    0.0000 C   0  0  0  0  0  0  0  0  0  0  0  0
    9.7500  -11.6913    0.0000 C   0  0  0  0  0  0  0  0  0  0  0  0
   10.5000  -10.3923    0.0000 C   0  0  0  0  0  0  0  0  0  0  0  0
    9.7500   -9.0933    0.0000 C   0  0  0  0  0  0  0  0  0  0  0  0
    6.0000   -5.1962    0.0000 C   0  0  0  0  0  0  0  0  0  0  0  0
    7.5000   -5.1962    0.0000 O   0  0  0  0  0  0  0  0  0  0  0  0
    8.2500   -3.8971    0.0000 C   0  0  0  0  0  0  0  0  0  0  0  0
    9.7500   -3.8971    0.0000 C   0  0  0  0  0  0  0  0  0  0  0  0
   10.5000   -5.1962    0.0000 C   0  0  0  0  0  0  0  0  0  0  0  0
   12.0000   -5.1962    0.0000 C   0  0  0  0  0  0  0  0  0  0  0  0
   12.7500   -3.8971    0.0000 C   0  0  0  0  0  0  0  0  0  0  0  0
   12.0000   -2.5981    0.0000 C   0  0  0  0  0  0  0  0  0  0  0  0
   10.5000   -2.5981    0.0000 C   0  0  0  0  0  0  0  0  0  0  0  0
    5.2500   -3.8971    0.0000 C   0  0  0  0  0  0  0  0  0  0  0  0
  1  2  2  0
  2  3  1  0
  4  3  1  1
  4  5  1  0
  5  6  1  0
  6  7  1  1
  7  8  1  0
  6  9  1  0
  9 10  1  6
  9 11  1  0
 11 12  1  1
 12 13  1  0
 13 14  2  0
 13 15  1  0
 15 16  1  0
 16 17  2  0
 17 18  1  0
 18 19  1  0
 19 20  1  0
 20 21  2  0
 21 22  1  0
 22 23  2  0
 23 24  1  0
 24 25  2  0
 17 26  1  0
 26 27  1  0
 27 28  1  0
 28 29  1  0
 29 30  2  0
 30 31  1  0
 31 32  2  0
 32 33  1  0
 33 34  2  0
 26 35  2  0
 35 36  1  0
 36 37  1  0
 37 38  1  0
 38 39  2  0
 39 40  1  0
 40 41  2  0
 41 42  1  0
 42 43  2  0
 35 44  1  0
 44 45  1  0
 45 46  2  0
 46 47  1  0
 47 48  2  0
 48 49  1  0
 49 50  1  0
 50 51  1  0
 51 52  2  0
 52 53  1  0
 53 54  2  0
 54 55  1  0
 55 56  2  0
 48 57  1  0
 57 58  1  0
 58 59  1  0
 59 60  1  0
 60 61  2  0
 61 62  1  0
 62 63  2  0
 63 64  1  0
 64 65  2  0
 57 66  2  0
 66 67  1  0
 67 68  1  0
 68 69  1  0
 69 70  2  0
 70 71  1  0
 71 72  2  0
 72 73  1  0
 73 74  2  0
 46 75  1  0
 75 76  2  0
 75 77  1  0
 78 77  1  6
  2 79  1  0
 79 80  2  0
 80 81  1  0
 81 82  1  0
 82 83  1  0
 83 84  1  0
 84 85  2  0
 85 86  1  0
 86 87  2  0
 87 88  1  0
 88 89  2  0
 81 90  2  0
 90 91  1  0
 91 92  1  0
 92 93  1  0
 93 94  2  0
 94 95  1  0
 95 96  2  0
 96 97  1  0
 97 98  2  0
 90 99  1  0
 99100  1  0
100101  1  0
101102  1  0
102103  2  0
103104  1  0
104105  2  0
105106  1  0
106107  2  0
 99108  2  0
 78  4  1  0
108 79  1  0
 78 11  1  0
 89 84  1  0
 98 93  1  0
107102  1  0
 44 15  2  0
 66 45  1  0
 74 69  1  0
 25 20  1  0
 34 29  1  0
 43 38  1  0
 56 51  1  0
 65 60  1  0
M  END
$$$$
6
     RDKit          2D

 33 34  0  0  0  0  0  0  0  0999 V2000
    3.2010   -3.3481    0.0000 C   0  0  0  0  0  0  0  0  0  0  0  0
    4.5000   -2.5981    0.0000 C   0  0  0  0  0  0  0  0  0  0  0  0
    5.7990   -1.8481    0.0000 C   0  0  0  0  0  0  0  0  0  0  0  0
    5.2500   -3.8971    0.0000 C   0  0  0  0  0  0  0  0  0  0  0  0
    3.7500   -1.2990    0.0000 Si  0  0  0  0  0  4  0  0  0  0  0  0
    5.0490   -0.5490    0.0000 C   0  0  0  0  0  0  0  0  0  0  0  0
    2.4510   -2.0490    0.0000 C   0  0  0  0  0  0  0  0  0  0  0  0
    3.0000    0.0000    0.0000 O   0  0  0  0  0  0  0  0  0  0  0  0
    1.5000    0.0000    0.0000 C   0  0  0  0  0  0  0  0  0  0  0  0
    0.7500   -1.2990    0.0000 C   0  0  0  0  0  0  0  0  0  0  0  0
   -0.7500   -1.2990    0.0000 C   0  0  0  0  0  0  0  0  0  0  0  0
   -1.5000   -2.5981    0.0000 C   0  0  0  0  0  0  0  0  0  0  0  0
   -0.7500   -3.8971    0.0000 O   0  0  0  0  0  0  0  0  0  0  0  0
   -3.0000   -2.5981    0.0000 O   0  0  0  0  0  0  0  0  0  0  0  0
   -1.5000    0.0000    0.0000 C   0  0  0  0  0  0  0  0  0  0  0  0
   -0.7500    1.2990    0.0000 C   0  0  0  0  0  0  0  0  0  0  0  0
   -1.5000    2.5981    0.0000 O   0  0  0  0  0  0  0  0  0  0  0  0
   -3.0000    2.5981    0.0000 Si  0  0  0  0  0  4  0  0  0  0  0  0
   -3.0000    4.0981    0.0000 C   0  0  0  0  0  0  0  0  0  0  0  0
   -3.0000    1.0981    0.0000 C   0  0  0  0  0  0  0  0  0  0  0  0
   -4.5000    2.5981    0.0000 C   0  0  0  0  0  0  0  0  0  0  0  0
   -4.5000    1.0981    0.0000 C   0  0  0  0  0  0  0  0  0  0  0  0
   -4.5000    4.0981    0.0000 C   0  0  0  0  0  0  0  0  0  0  0  0
   -6.0000    2.5981    0.0000 C   0  0  0  0  0  0  0  0  0  0  0  0
    0.7500    1.2990    0.0000 C   0  0  0  0  0  0  0  0  0  0  0  0
    1.5000    2.5981    0.0000 O   0  0  0  0  0  0  0  0  0  0  0  0
    3.0000    2.5981    0.0000 C   0  0  0  0  0  0  0  0  0  0  0  0
    3.7500    3.8971    0.0000 C   0  0  0  0  0  0  0  0  0  0  0  0
    5.2500    3.8971    0.0000 C   0  0  0  0  0  0  0  0  0  0  0  0
    6.0000    5.1962    0.0000 C   0  0  0  0  0  0  0  0  0  0  0  0
    5.2500    6.4952    0.0000 C   0  0  0  0  0  0  0  0  0  0  0  0
    3.7500    6.4952    0.0000 C   0  0  0  0  0  0  0  0  0  0  0  0
    3.0000    5.1962    0.0000 C   0  0  0  0  0  0  0  0  0  0  0  0
  1  2  1  0
  2  3  1  0
  2  4  1  0
  2  5  1  0
  5  6  1  0
  5  7  1  0
  5  8  1  0
  8  9  1  0
  9 10  1  0
 10 11  2  0
 11 12  1  0
 12 13  2  0
 12 14  1  0
 11 15  1  0
 15 16  2  0
 16 17  1  0
 17 18  1  0
 18 19  1  0
 18 20  1  0
 18 21  1  0
 21 22  1  0
 21 23  1  0
 21 24  1  0
 16 25  1  0
 25 26  1  0
 26 27  1  0
 27 28  1  0
 28 29  2  0
 29 30  1  0
 30 31  2  0
 31 32  1  0
 32 33  2  0
 25  9  2  0
 33 28  1  0
M  END
$$$$
19
     RDKit          2D

 33 36  0  0  0  0  0  0  0  0999 V2000
    3.7500    1.2990    0.0000 O   0  0  0  0  0  0  0  0  0  0  0  0
    3.0000    0.0000    0.0000 C   0  0  0  0  0  0  0  0  0  0  0  0
    3.7500   -1.2990    0.0000 O   0  0  0  0  0  0  0  0  0  0  0  0
    1.5000    0.0000    0.0000 C   0  0  0  0  0  0  0  0  0  0  0  0
    0.7500   -1.2990    0.0000 C   0  0  0  0  0  0  0  0  0  0  0  0
   -0.7500   -1.2990    0.0000 C   0  0  0  0  0  0  0  0  0  0  0  0
   -1.5000   -2.5981    0.0000 O   0  0  0  0  0  0  0  0  0  0  0  0
   -3.0000   -2.5981    0.0000 C   0  0  0  0  0  0  0  0  0  0  0  0
   -3.7500   -3.8971    0.0000 C   0  0  0  0  0  0  0  0  0  0  0  0
   -5.2500   -3.8971    0.0000 C   0  0  0  0  0  0  0  0  0  0  0  0
   -6.0000   -5.1962    0.0000 C   0  0  0  0  0  0  0  0  0  0  0  0
   -5.2500   -6.4952    0.0000 C   0  0  0  0  0  0  0  0  0  0  0  0
   -3.7500   -6.4952    0.0000 C   0  0  0  0  0  0  0  0  0  0  0  0
   -3.0000   -5.1962    0.0000 C   0  0  0  0  0  0  0  0  0  0  0  0
   -1.5000    0.0000    0.0000 C   0  0  0  0  0  0  0  0  0  0  0  0
   -3.0000    0.0000    0.0000 O   0  0  0  0  0  0  0  0  0  0  0  0
   -3.7500    1.2990    0.0000 C   0  0  0  0  0  0  0  0  0  0  0  0
   -5.2500    1.2990    0.0000 C   0  0  0  0  0  0  0  0  0  0  0  0
   -6.0000    2.5981    0.0000 C   0  0  0  0  0  0  0  0  0  0  0  0
   -7.5000    2.5981    0.0000 C   0  0  0  0  0  0  0  0  0  0  0  0
   -8.2500    1.2990    0.0000 C   0  0  0  0  0  0  0  0  0  0  0  0
   -7.5000    0.0000    0.0000 C   0  0  0  0  0  0  0  0  0  0  0  0
   -6.0000    0.0000    0.0000 C   0  0  0  0  0  0  0  0  0  0  0  0
   -0.7500    1.2990    0.0000 C   0  0  0  0  0  0  0  0  0  0  0  0
   -1.5000    2.5981    0.0000 O   0  0  0  0  0  0  0  0  0  0  0  0
   -0.7500    3.8971    0.0000 C   0  0  0  0  0  0  0  0  0  0  0  0
   -1.5000    5.1962    0.0000 C   0  0  0  0  0  0  0  0  0  0  0  0
   -0.7500    6.4952    0.0000 C   0  0  0  0  0  0  0  0  0  0  0  0
   -1.5000    7.7942    0.0000 C   0  0  0  0  0  0  0  0  0  0  0  0
   -3.0000    7.7942    0.0000 C   0  0  0  0  0  0  0  0  0  0  0  0
   -3.7500    6.4952    0.0000 C   0  0  0  0  0  0  0  0  0  0  0  0
   -3.0000    5.1962    0.0000 C   0  0  0  0  0  0  0  0  0  0  0  0
    0.7500    1.2990    0.0000 C   0  0  0  0  0  0  0  0  0  0  0  0
  1  2  2  0
  2  3  1  0
  2  4  1  0
  4  5  2  0
  5  6  1  0
  6  7  1  0
  7  8  1  0
  8  9  1  0
  9 10  2  0
 10 11  1  0
 11 12  2  0
 12 13  1  0
 13 14  2  0
  6 15  2  0
 15 16  1  0
 16 17  1  0
 17 18  1  0
 18 19  2  0
 19 20  1  0
 20 21  2  0
 21 22  1  0
 22 23  2  0
 15 24  1  0
 24 25  1  0
 25 26  1  0
 26 27  1  0
 27 28  2  0
 28 29  1  0
 29 30  2  0
 30 31  1  0
 31 32  2  0
 24 33  2  0
 33  4  1  0
 14  9  1  0
 23 18  1  0
 32 27  1  0
M  END
$$$$
21
     RDKit          2D

 13 13  0  0  0  0  0  0  0  0999 V2000
    5.2500   -1.2990    0.0000 C   0  0  0  0  0  0  0  0  0  0  0  0
    3.7500   -1.2990    0.0000 O   0  0  0  0  0  0  0  0  0  0  0  0
    3.0000    0.0000    0.0000 C   0  0  0  0  0  0  0  0  0  0  0  0
    3.7500    1.2990    0.0000 O   0  0  0  0  0  0  0  0  0  0  0  0
    1.5000    0.0000    0.0000 C   0  0  0  0  0  0  0  0  0  0  0  0
    0.7500   -1.2990    0.0000 C   0  0  0  0  0  0  0  0  0  0  0  0
   -0.7500   -1.2990    0.0000 C   0  0  0  0  0  0  0  0  0  0  0  0
   -1.5000   -2.5981    0.0000 O   0  0  0  0  0  0  0  0  0  0  0  0
   -1.5000    0.0000    0.0000 C   0  0  0  0  0  0  0  0  0  0  0  0
   -3.0000    0.0000    0.0000 O   0  0  0  0  0  0  0  0  0  0  0  0
   -0.7500    1.2990    0.0000 C   0  0  0  0  0  0  0  0  0  0  0  0
   -1.5000    2.5981    0.0000 O   0  0  0  0  0  0  0  0  0  0  0  0
    0.7500    1.2990    0.0000 C   0  0  0  0  0  0  0  0  0  0  0  0
  1  2  1  0
  2  3  1  0
  3  4  2  0
  3  5  1  0
  5  6  2  0
  6  7  1  0
  7  8  1  0
  7  9  2  0
  9 10  1  0
  9 11  1  0
 11 12  1  0
 11 13  2  0
 13  5  1  0
M  END
$$$$
22
     RDKit          2D

 16 16  0  0  0  0  0  0  0  0999 V2000
    6.0000   -2.5981    0.0000 C   0  0  0  0  0  0  0  0  0  0  0  0
    5.2500   -1.2990    0.0000 O   0  0  0  0  0  0  0  0  0  0  0  0
    3.7500   -1.2990    0.0000 C   0  0  0  0  0  0  0  0  0  0  0  0
    3.0000    0.0000    0.0000 O   0  0  0  0  0  0  0  0  0  0  0  0
    1.5000    0.0000    0.0000 C   0  0  0  0  0  0  0  0  0  0  0  0
    0.7500   -1.2990    0.0000 C   0  0  0  0  0  0  0  0  0  0  0  0
    1.5000   -2.5981    0.0000 O   0  0  0  0  0  0  0  0  0  0  0  0
   -0.7500   -1.2990    0.0000 C   0  0  0  0  0  0  0  0  0  0  0  0
   -1.5000    0.0000    0.0000 C   0  0  0  0  0  0  0  0  0  0  0  0
   -3.0000    0.0000    0.0000 C   0  0  0  0  0  0  0  0  0  0  0  0
   -3.7500   -1.2990    0.0000 O   0  0  0  0  0  0  0  0  0  0  0  0
   -3.7500    1.2990    0.0000 O   0  0  0  0  0  0  0  0  0  0  0  0
   -5.2500    1.2990    0.0000 C   0  0  0  0  0  0  0  0  0  0  0  0
   -0.7500    1.2990    0.0000 C   0  0  0  0  0  0  0  0  0  0  0  0
    0.7500    1.2990    0.0000 C   0  0  0  0  0  0  0  0  0  0  0  0
    1.5000    2.5981    0.0000 O   0  0  0  0  0  0  0  0  0  0  0  0
  1  2  1  0
  2  3  1  0
  3  4  1  0
  4  5  1  0
  5  6  2  0
  6  7  1  0
  6  8  1  0
  8  9  2  0
  9 10  1  0
 10 11  2  0
 10 12  1  0
 12 13  1  0
  9 14  1  0
 14 15  2  0
 15 16  1  0
 15  5  1  0
M  END
$$$$
23
     RDKit          2D

 22 22  0  0  0  0  0  0  0  0999 V2000
    6.0000   -2.5981    0.0000 C   0  0  0  0  0  0  0  0  0  0  0  0
    5.2500   -1.2990    0.0000 C   0  0  0  0  0  0  0  0  0  0  0  0
    3.7500   -1.2990    0.0000 C   0  0  0  0  0  0  0  0  0  0  0  0
    3.0000    0.0000    0.0000 O   0  0  0  0  0  0  0  0  0  0  0  0
    1.5000    0.0000    0.0000 C   0  0  0  0  0  0  0  0  0  0  0  0
    0.7500   -1.2990    0.0000 C   0  0  0  0  0  0  0  0  0  0  0  0
   -0.7500   -1.2990    0.0000 C   0  0  0  0  0  0  0  0  0  0  0  0
   -1.5000   -2.5981    0.0000 C   0  0  0  0  0  0  0  0  0  0  0  0
   -0.7500   -3.8971    0.0000 O   0  0  0  0  0  0  0  0  0  0  0  0
   -3.0000   -2.5981    0.0000 O   0  0  0  0  0  0  0  0  0  0  0  0
   -3.7500   -3.8971    0.0000 C   0  0  0  0  0  0  0  0  0  0  0  0
   -1.5000    0.0000    0.0000 C   0  0  0  0  0  0  0  0  0  0  0  0
   -0.7500    1.2990    0.0000 C   0  0  0  0  0  0  0  0  0  0  0  0
   -1.5000    2.5981    0.0000 O   0  0  0  0  0  0  0  0  0  0  0  0
   -0.7500    3.8971    0.0000 C   0  0  0  0  0  0  0  0  0  0  0  0
   -1.5000    5.1962    0.0000 C   0  0  0  0  0  0  0  0  0  0  0  0
   -0.7500    6.4952    0.0000 C   0  0  0  0  0  0  0  0  0  0  0  0
    0.7500    1.2990    0.0000 C   0  0  0  0  0  0  0  0  0  0  0  0
    1.5000    2.5981    0.0000 O   0  0  0  0  0  0  0  0  0  0  0  0
    3.0000    2.5981    0.0000 C   0  0  0  0  0  0  0  0  0  0  0  0
    3.7500    3.8971    0.0000 O   0  0  0  0  0  0  0  0  0  0  0  0
    5.2500    3.8971    0.0000 C   0  0  0  0  0  0  0  0  0  0  0  0
  1  2  2  0
  2  3  1  0
  3  4  1  0
  4  5  1  0
  5  6  1  0
  6  7  2  0
  7  8  1  0
  8  9  2  0
  8 10  1  0
 10 11  1  0
  7 12  1  0
 12 13  2  0
 13 14  1  0
 14 15  1  0
 15 16  1  0
 16 17  2  0
 13 18  1  0
 18 19  1  0
 19 20  1  0
 20 21  1  0
 21 22  1  0
 18  5  2  0
M  END
$$$$
24
     RDKit          2D

 21 21  0  0  0  0  0  0  0  0999 V2000
    6.0000   -2.5981    0.0000 C   0  0  0  0  0  0  0  0  0  0  0  0
    5.2500   -1.2990    0.0000 C   0  0  0  0  0  0  0  0  0  0  0  0
    3.7500   -1.2990    0.0000 C   0  0  0  0  0  0  0  0  0  0  0  0
    3.0000    0.0000    0.0000 O   0  0  0  0  0  0  0  0  0  0  0  0
    1.5000    0.0000    0.0000 C   0  0  0  0  0  0  0  0  0  0  0  0
    0.7500   -1.2990    0.0000 C   0  0  0  0  0  0  0  0  0  0  0  0
   -0.7500   -1.2990    0.0000 C   0  0  0  0  0  0  0  0  0  0  0  0
   -1.5000   -2.5981    0.0000 C   0  0  0  0  0  0  0  0  0  0  0  0
   -0.7500   -3.8971    0.0000 O   0  0  0  0  0  0  0  0  0  0  0  0
   -3.0000   -2.5981    0.0000 O   0  0  0  0  0  0  0  0  0  0  0  0
   -1.5000    0.0000    0.0000 C   0  0  0  0  0  0  0  0  0  0  0  0
   -0.7500    1.2990    0.0000 C   0  0  0  0  0  0  0  0  0  0  0  0
   -1.5000    2.5981    0.0000 O   0  0  0  0  0  0  0  0  0  0  0  0
   -0.7500    3.8971    0.0000 C   0  0  0  0  0  0  0  0  0  0  0  0
   -1.5000    5.1962    0.0000 C   0  0  0  0  0  0  0  0  0  0  0  0
   -0.7500    6.4952    0.0000 C   0  0  0  0  0  0  0  0  0  0  0  0
    0.7500    1.2990    0.0000 C   0  0  0  0  0  0  0  0  0  0  0  0
    1.5000    2.5981    0.0000 O   0  0  0  0  0  0  0  0  0  0  0  0
    3.0000    2.5981    0.0000 C   0  0  0  0  0  0  0  0  0  0  0  0
    3.7500    3.8971    0.0000 O   0  0  0  0  0  0  0  0  0  0  0  0
    5.2500    3.8971    0.0000 C   0  0  0  0  0  0  0  0  0  0  0  0
  1  2  2  0
  2  3  1  0
  3  4  1  0
  4  5  1  0
  5  6  1  0
  6  7  2  0
  7  8  1  0
  8  9  2  0
  8 10  1  0
  7 11  1  0
 11 12  2  0
 12 13  1  0
 13 14  1  0
 14 15  1  0
 15 16  2  0
 12 17  1  0
 17 18  1  0
 18 19  1  0
 19 20  1  0
 20 21  1  0
 17  5  2  0
M  END
$$$$
25
     RDKit          2D

 25 25  0  0  0  0  0  0  0  0999 V2000
    6.0000   -2.5981    0.0000 C   0  0  0  0  0  0  0  0  0  0  0  0
    5.2500   -1.2990    0.0000 C   0  0  0  0  0  0  0  0  0  0  0  0
    3.7500   -1.2990    0.0000 C   0  0  0  0  0  0  0  0  0  0  0  0
    3.0000    0.0000    0.0000 O   0  0  0  0  0  0  0  0  0  0  0  0
    1.5000    0.0000    0.0000 C   0  0  0  0  0  0  0  0  0  0  0  0
    0.7500   -1.2990    0.0000 C   0  0  0  0  0  0  0  0  0  0  0  0
   -0.7500   -1.2990    0.0000 C   0  0  0  0  0  0  0  0  0  0  0  0
   -1.5000   -2.5981    0.0000 C   0  0  0  0  0  0  0  0  0  0  0  0
   -0.7500   -3.8971    0.0000 O   0  0  0  0  0  0  0  0  0  0  0  0
   -3.0000   -2.5981    0.0000 O   0  0  0  0  0  0  0  0  0  0  0  0
   -3.7500   -3.8971    0.0000 C   0  0  0  0  0  0  0  0  0  0  0  0
   -5.0490   -3.1471    0.0000 C   0  0  0  0  0  0  0  0  0  0  0  0
   -2.4510   -4.6471    0.0000 C   0  0  0  0  0  0  0  0  0  0  0  0
   -4.5000   -5.1962    0.0000 C   0  0  0  0  0  0  0  0  0  0  0  0
   -1.5000    0.0000    0.0000 C   0  0  0  0  0  0  0  0  0  0  0  0
   -0.7500    1.2990    0.0000 C   0  0  0  0  0  0  0  0  0  0  0  0
   -1.5000    2.5981    0.0000 O   0  0  0  0  0  0  0  0  0  0  0  0
   -0.7500    3.8971    0.0000 C   0  0  0  0  0  0  0  0  0  0  0  0
   -1.5000    5.1962    0.0000 C   0  0  0  0  0  0  0  0  0  0  0  0
   -0.7500    6.4952    0.0000 C   0  0  0  0  0  0  0  0  0  0  0  0
    0.7500    1.2990    0.0000 C   0  0  0  0  0  0  0  0  0  0  0  0
    1.5000    2.5981    0.0000 O   0  0  0  0  0  0  0  0  0  0  0  0
    3.0000    2.5981    0.0000 C   0  0  0  0  0  0  0  0  0  0  0  0
    3.7500    3.8971    0.0000 O   0  0  0  0  0  0  0  0  0  0  0  0
    5.2500    3.8971    0.0000 C   0  0  0  0  0  0  0  0  0  0  0  0
  1  2  2  0
  2  3  1  0
  3  4  1  0
  4  5  1  0
  5  6  1  0
  6  7  2  0
  7  8  1  0
  8  9  2  0
  8 10  1  0
 10 11  1  0
 11 12  1  0
 11 13  1  0
 11 14  1  0
  7 15  1  0
 15 16  2  0
 16 17  1  0
 17 18  1  0
 18 19  1  0
 19 20  2  0
 16 21  1  0
 21 22  1  0
 22 23  1  0
 23 24  1  0
 24 25  1  0
 21  5  2  0
M  END
$$$$
12
     RDKit          2D

 22 22  0  0  0  0  0  0  0  0999 V2000
    6.0000   -2.5981    0.0000 C   0  0  0  0  0  0  0  0  0  0  0  0
    5.2500   -1.2990    0.0000 C   0  0  0  0  0  0  0  0  0  0  0  0
    3.7500   -1.2990    0.0000 C   0  0  0  0  0  0  0  0  0  0  0  0
    3.0000    0.0000    0.0000 O   0  0  0  0  0  0  0  0  0  0  0  0
    1.5000    0.0000    0.0000 C   0  0  0  0  0  0  0  0  0  0  0  0
    0.7500   -1.2990    0.0000 C   0  0  0  0  0  0  0  0  0  0  0  0
   -0.7500   -1.2990    0.0000 C   0  0  0  0  0  0  0  0  0  0  0  0
   -1.5000   -2.5981    0.0000 C   0  0  0  0  0  0  0  0  0  0  0  0
   -0.7500   -3.8971    0.0000 O   0  0  0  0  0  0  0  0  0  0  0  0
   -3.0000   -2.5981    0.0000 O   0  0  0  0  0  0  0  0  0  0  0  0
   -3.7500   -3.8971    0.0000 C   0  0  0  0  0  0  0  0  0  0  0  0
   -5.0490   -3.1471    0.0000 C   0  0  0  0  0  0  0  0  0  0  0  0
   -2.4510   -4.6471    0.0000 C   0  0  0  0  0  0  0  0  0  0  0  0
   -4.5000   -5.1962    0.0000 C   0  0  0  0  0  0  0  0  0  0  0  0
   -1.5000    0.0000    0.0000 C   0  0  0  0  0  0  0  0  0  0  0  0
   -0.7500    1.2990    0.0000 C   0  0  0  0  0  0  0  0  0  0  0  0
   -1.5000    2.5981    0.0000 O   0  0  0  0  0  0  0  0  0  0  0  0
   -3.0000    2.5981    0.0000 C   0  0  0  0  0  0  0  0  0  0  0  0
   -3.7500    3.8971    0.0000 C   0  0  0  0  0  0  0  0  0  0  0  0
   -5.2500    3.8971    0.0000 C   0  0  0  0  0  0  0  0  0  0  0  0
    0.7500    1.2990    0.0000 C   0  0  0  0  0  0  0  0  0  0  0  0
    1.5000    2.5981    0.0000 O   0  0  0  0  0  0  0  0  0  0  0  0
  1  2  2  0
  2  3  1  0
  3  4  1  0
  4  5  1  0
  5  6  1  0
  6  7  2  0
  7  8  1  0
  8  9  2  0
  8 10  1  0
 10 11  1  0
 11 12  1  0
 11 13  1  0
 11 14  1  0
  7 15  1  0
 15 16  2  0
 16 17  1  0
 17 18  1  0
 18 19  1  0
 19 20  2  0
 16 21  1  0
 21 22  1  0
 21  5  2  0
M  END
$$$$
34
     RDKit          2D

 29 29  0  0  0  0  0  0  0  0999 V2000
    6.0000   -2.5981    0.0000 C   0  0  0  0  0  0  0  0  0  0  0  0
    5.2500   -1.2990    0.0000 O   0  0  0  0  0  0  0  0  0  0  0  0
    3.7500   -1.2990    0.0000 C   0  0  0  0  0  0  0  0  0  0  0  0
    3.0000    0.0000    0.0000 O   0  0  0  0  0  0  0  0  0  0  0  0
    1.5000    0.0000    0.0000 C   0  0  0  0  0  0  0  0  0  0  0  0
    0.7500   -1.2990    0.0000 C   0  0  0  0  0  0  0  0  0  0  0  0
    1.5000   -2.5981    0.0000 O   0  0  0  0  0  0  0  0  0  0  0  0
    0.7500   -3.8971    0.0000 Si  0  0  0  0  0  4  0  0  0  0  0  0
    2.0490   -4.6471    0.0000 C   0  0  0  0  0  0  0  0  0  0  0  0
   -0.5490   -3.1471    0.0000 C   0  0  0  0  0  0  0  0  0  0  0  0
   -0.0000   -5.1962    0.0000 C   0  0  0  0  0  0  0  0  0  0  0  0
   -1.2990   -4.4462    0.0000 C   0  0  0  0  0  0  0  0  0  0  0  0
    1.2990   -5.9462    0.0000 C   0  0  0  0  0  0  0  0  0  0  0  0
   -0.7500   -6.4952    0.0000 C   0  0  0  0  0  0  0  0  0  0  0  0
   -0.7500   -1.2990    0.0000 C   0  0  0  0  0  0  0  0  0  0  0  0
   -1.5000    0.0000    0.0000 C   0  0  0  0  0  0  0  0  0  0  0  0
   -3.0000    0.0000    0.0000 C   0  0  0  0  0  0  0  0  0  0  0  0
   -3.7500   -1.2990    0.0000 O   0  0  0  0  0  0  0  0  0  0  0  0
   -3.7500    1.2990    0.0000 O   0  0  0  0  0  0  0  0  0  0  0  0
   -0.7500    1.2990    0.0000 C   0  0  0  0  0  0  0  0  0  0  0  0
    0.7500    1.2990    0.0000 C   0  0  0  0  0  0  0  0  0  0  0  0
    1.5000    2.5981    0.0000 O   0  0  0  0  0  0  0  0  0  0  0  0
    0.7500    3.8971    0.0000 Si  0  0  0  0  0  4  0  0  0  0  0  0
    2.0490    4.6471    0.0000 C   0  0  0  0  0  0  0  0  0  0  0  0
   -0.5490    3.1471    0.0000 C   0  0  0  0  0  0  0  0  0  0  0  0
    0.0000    5.1962    0.0000 C   0  0  0  0  0  0  0  0  0  0  0  0
   -1.2990    4.4462    0.0000 C   0  0  0  0  0  0  0  0  0  0  0  0
    1.2990    5.9462    0.0000 C   0  0  0  0  0  0  0  0  0  0  0  0
   -0.7500    6.4952    0.0000 C   0  0  0  0  0  0  0  0  0  0  0  0
  1  2  1  0
  2  3  1  0
  3  4  1  0
  4  5  1  0
  5  6  2  0
  6  7  1  0
  7  8  1  0
  8  9  1  0
  8 10  1  0
  8 11  1  0
 11 12  1  0
 11 13  1  0
 11 14  1  0
  6 15  1  0
 15 16  2  0
 16 17  1  0
 17 18  2  0
 17 19  1  0
 16 20  1  0
 20 21  2  0
 21 22  1  0
 22 23  1  0
 23 24  1  0
 23 25  1  0
 23 26  1  0
 26 27  1  0
 26 28  1  0
 26 29  1  0
 21  5  1  0
M  END
$$$$
40
     RDKit          2D

 36 39  0  0  0  0  0  0  0  0999 V2000
    6.0000   -2.5981    0.0000 C   0  0  0  0  0  0  0  0  0  0  0  0
    5.2500   -1.2990    0.0000 O   0  0  0  0  0  0  0  0  0  0  0  0
    3.7500   -1.2990    0.0000 C   0  0  0  0  0  0  0  0  0  0  0  0
    3.0000    0.0000    0.0000 O   0  0  0  0  0  0  0  0  0  0  0  0
    1.5000    0.0000    0.0000 C   0  0  0  0  0  0  0  0  0  0  0  0
    0.7500   -1.2990    0.0000 C   0  0  0  0  0  0  0  0  0  0  0  0
    1.5000   -2.5981    0.0000 O   0  0  0  0  0  0  0  0  0  0  0  0
    0.7500   -3.8971    0.0000 C   0  0  0  0  0  0  0  0  0  0  0  0
    1.5000   -5.1962    0.0000 C   0  0  0  0  0  0  0  0  0  0  0  0
    0.7500   -6.4952    0.0000 C   0  0  0  0  0  0  0  0  0  0  0  0
    1.5000   -7.7942    0.0000 C   0  0  0  0  0  0  0  0  0  0  0  0
    3.0000   -7.7942    0.0000 C   0  0  0  0  0  0  0  0  0  0  0  0
    3.7500   -6.4952    0.0000 C   0  0  0  0  0  0  0  0  0  0  0  0
    3.0000   -5.1962    0.0000 C   0  0  0  0  0  0  0  0  0  0  0  0
   -0.7500   -1.2990    0.0000 C   0  0  0  0  0  0  0  0  0  0  0  0
   -1.5000    0.0000    0.0000 C   0  0  0  0  0  0  0  0  0  0  0  0
   -3.0000    0.0000    0.0000 C   0  0  0  0  0  0  0  0  0  0  0  0
   -3.7500   -1.2990    0.0000 O   0  0  0  0  0  0  0  0  0  0  0  0
   -3.7500    1.2990    0.0000 O   0  0  0  0  0  0  0  0  0  0  0  0
   -5.2500    1.2990    0.0000 C   0  0  0  0  0  0  0  0  0  0  0  0
   -6.0000    2.5981    0.0000 C   0  0  0  0  0  0  0  0  0  0  0  0
   -5.2500    3.8971    0.0000 C   0  0  0  0  0  0  0  0  0  0  0  0
   -6.0000    5.1962    0.0000 C   0  0  0  0  0  0  0  0  0  0  0  0
   -7.5000    5.1962    0.0000 C   0  0  0  0  0  0  0  0  0  0  0  0
   -8.2500    3.8971    0.0000 C   0  0  0  0  0  0  0  0  0  0  0  0
   -7.5000    2.5981    0.0000 C   0  0  0  0  0  0  0  0  0  0  0  0
   -0.7500    1.2990    0.0000 C   0  0  0  0  0  0  0  0  0  0  0  0
    0.7500    1.2990    0.0000 C   0  0  0  0  0  0  0  0  0  0  0  0
    1.5000    2.5981    0.0000 O   0  0  0  0  0  0  0  0  0  0  0  0
    3.0000    2.5981    0.0000 C   0  0  0  0  0  0  0  0  0  0  0  0
    3.7500    3.8971    0.0000 C   0  0  0  0  0  0  0  0  0  0  0  0
    5.2500    3.8971    0.0000 C   0  0  0  0  0  0  0  0  0  0  0  0
    6.0000    5.1962    0.0000 C   0  0  0  0  0  0  0  0  0  0  0  0
    5.2500    6.4952    0.0000 C   0  0  0  0  0  0  0  0  0  0  0  0
    3.7500    6.4952    0.0000 C   0  0  0  0  0  0  0  0  0  0  0  0
    3.0000    5.1962    0.0000 C   0  0  0  0  0  0  0  0  0  0  0  0
  1  2  1  0
  2  3  1  0
  3  4  1  0
  4  5  1  0
  5  6  2  0
  6  7  1  0
  7  8  1  0
  8  9  1  0
  9 10  2  0
 10 11  1  0
 11 12  2  0
 12 13  1  0
 13 14  2  0
  6 15  1  0
 15 16  2  0
 16 17  1  0
 17 18  2  0
 17 19  1  0
 19 20  1  0
 20 21  1  0
 21 22  2  0
 22 23  1  0
 23 24  2  0
 24 25  1  0
 25 26  2  0
 16 27  1  0
 27 28  2  0
 28 29  1  0
 29 30  1  0
 30 31  1  0
 31 32  2  0
 32 33  1  0
 33 34  2  0
 34 35  1  0
 35 36  2  0
 28  5  1  0
 36 31  1  0
 14  9  1  0
 26 21  1  0
M  END
$$$$
13
     RDKit          2D

 41 45  0  0  0  0  0  0  0  0999 V2000
    3.0000   -5.1962    0.0000 O   0  0  0  0  0  0  0  0  0  0  0  0
    1.5000   -5.1962    0.0000 C   0  0  0  0  0  0  0  0  0  0  0  0
    0.7500   -3.8971    0.0000 O   0  0  0  0  0  0  0  0  0  0  0  0
    1.5000   -2.5981    0.0000 C   0  0  0  0  0  0  0  0  0  0  0  0
    0.7500   -1.2990    0.0000 C   0  0  0  0  0  0  0  0  0  0  0  0
    1.5000    0.0000    0.0000 C   0  0  0  0  0  0  0  0  0  0  0  0
    0.7500    1.2990    0.0000 C   0  0  0  0  0  0  0  0  0  0  0  0
   -0.7500    1.2990    0.0000 C   0  0  0  0  0  0  0  0  0  0  0  0
   -1.5000    0.0000    0.0000 C   0  0  0  0  0  0  0  0  0  0  0  0
   -0.7500   -1.2990    0.0000 C   0  0  0  0  0  0  0  0  0  0  0  0
    0.7500   -6.4952    0.0000 C   0  0  0  0  0  0  0  0  0  0  0  0
   -0.7500   -6.4952    0.0000 C   0  0  0  0  0  0  0  0  0  0  0  0
   -1.5000   -7.7942    0.0000 C   0  0  0  0  0  0  0  0  0  0  0  0
   -3.0000   -7.7942    0.0000 O   0  0  0  0  0  0  0  0  0  0  0  0
   -3.7500   -6.4952    0.0000 C   0  0  0  0  0  0  0  0  0  0  0  0
   -5.2500   -6.4952    0.0000 C   0  0  0  0  0  0  0  0  0  0  0  0
   -6.0000   -5.1962    0.0000 C   0  0  0  0  0  0  0  0  0  0  0  0
   -7.5000   -5.1962    0.0000 C   0  0  0  0  0  0  0  0  0  0  0  0
   -8.2500   -6.4952    0.0000 C   0  0  0  0  0  0  0  0  0  0  0  0
   -7.5000   -7.7942    0.0000 C   0  0  0  0  0  0  0  0  0  0  0  0
   -6.0000   -7.7942    0.0000 C   0  0  0  0  0  0  0  0  0  0  0  0
   -0.7500   -9.0933    0.0000 C   0  0  0  0  0  0  0  0  0  0  0  0
   -1.5000  -10.3923    0.0000 O   0  0  0  0  0  0  0  0  0  0  0  0
   -0.7500  -11.6913    0.0000 C   0  0  0  0  0  0  0  0  0  0  0  0
   -1.5000  -12.9904    0.0000 C   0  0  0  0  0  0  0  0  0  0  0  0
   -3.0000  -12.9904    0.0000 C   0  0  0  0  0  0  0  0  0  0  0  0
   -3.7500  -14.2894    0.0000 C   0  0  0  0  0  0  0  0  0  0  0  0
   -3.0000  -15.5885    0.0000 C   0  0  0  0  0  0  0  0  0  0  0  0
   -1.5000  -15.5885    0.0000 C   0  0  0  0  0  0  0  0  0  0  0  0
   -0.7500  -14.2894    0.0000 C   0  0  0  0  0  0  0  0  0  0  0  0
    0.7500   -9.0933    0.0000 C   0  0  0  0  0  0  0  0  0  0  0  0
    1.5000  -10.3923    0.0000 O   0  0  0  0  0  0  0  0  0  0  0  0
    3.0000  -10.3923    0.0000 C   0  0  0  0  0  0  0  0  0  0  0  0
    3.7500  -11.6913    0.0000 C   0  0  0  0  0  0  0  0  0  0  0  0
    3.0000  -12.9904    0.0000 C   0  0  0  0  0  0  0  0  0  0  0  0
    3.7500  -14.2894    0.0000 C   0  0  0  0  0  0  0  0  0  0  0  0
    5.2500  -14.2894    0.0000 C   0  0  0  0  0  0  0  0  0  0  0  0
    6.0000  -12.9904    0.0000 C   0  0  0  0  0  0  0  0  0  0  0  0
    5.2500  -11.6913    0.0000 C   0  0  0  0  0  0  0  0  0  0  0  0
    1.5000   -7.7942    0.0000 C   0  0  0  0  0  0  0  0  0  0  0  0
    3.0000   -7.7942    0.0000 Br  0  0  0  0  0  0  0  0  0  0  0  0
  1  2  2  0
  2  3  1  0
  3  4  1  0
  4  5  1  0
  5  6  2  0
  6  7  1  0
  7  8  2  0
  8  9  1  0
  9 10  2  0
  2 11  1  0
 11 12  1  0
 12 13  2  0
 13 14  1  0
 14 15  1  0
 15 16  1  0
 16 17  2  0
 17 18  1  0
 18 19  2  0
 19 20  1  0
 20 21  2  0
 13 22  1  0
 22 23  1  0
 23 24  1  0
 24 25  1  0
 25 26  2  0
 26 27  1  0
 27 28  2  0
 28 29  1  0
 29 30  2  0
 22 31  2  0
 31 32  1  0
 32 33  1  0
 33 34  1  0
 34 35  2  0
 35 36  1  0
 36 37  2  0
 37 38  1  0
 38 39  2  0
 31 40  1  0
 40 41  1  0
 10  5  1  0
 40 11  2  0
 21 16  1  0
 30 25  1  0
 39 34  1  0
M  END
$$$$
41
     RDKit          2D

 37 40  0  0  0  0  0  0  0  0999 V2000
    6.0000    2.5981    0.0000 C   0  0  0  0  0  0  0  0  0  0  0  0
    5.2500    1.2990    0.0000 O   0  0  0  0  0  0  0  0  0  0  0  0
    3.7500    1.2990    0.0000 C   0  0  0  0  0  0  0  0  0  0  0  0
    3.0000    0.0000    0.0000 O   0  0  0  0  0  0  0  0  0  0  0  0
    1.5000    0.0000    0.0000 C   0  0  0  0  0  0  0  0  0  0  0  0
    0.7500   -1.2990    0.0000 C   0  0  0  0  0  0  0  0  0  0  0  0
    1.5000   -2.5981    0.0000 O   0  0  0  0  0  0  0  0  0  0  0  0
    0.7500   -3.8971    0.0000 C   0  0  0  0  0  0  0  0  0  0  0  0
    1.5000   -5.1962    0.0000 C   0  0  0  0  0  0  0  0  0  0  0  0
    0.7500   -6.4952    0.0000 C   0  0  0  0  0  0  0  0  0  0  0  0
    1.5000   -7.7942    0.0000 C   0  0  0  0  0  0  0  0  0  0  0  0
    3.0000   -7.7942    0.0000 C   0  0  0  0  0  0  0  0  0  0  0  0
    3.7500   -6.4952    0.0000 C   0  0  0  0  0  0  0  0  0  0  0  0
    3.0000   -5.1962    0.0000 C   0  0  0  0  0  0  0  0  0  0  0  0
   -0.7500   -1.2990    0.0000 C   0  0  0  0  0  0  0  0  0  0  0  0
   -1.5000    0.0000    0.0000 C   0  0  0  0  0  0  0  0  0  0  0  0
   -3.0000    0.0000    0.0000 C   0  0  0  0  0  0  0  0  0  0  0  0
   -3.7500   -1.2990    0.0000 O   0  0  0  0  0  0  0  0  0  0  0  0
   -3.7500    1.2990    0.0000 O   0  0  0  0  0  0  0  0  0  0  0  0
   -5.2500    1.2990    0.0000 C   0  0  0  0  0  0  0  0  0  0  0  0
   -6.0000    2.5981    0.0000 C   0  0  0  0  0  0  0  0  0  0  0  0
   -5.2500    3.8971    0.0000 C   0  0  0  0  0  0  0  0  0  0  0  0
   -6.0000    5.1962    0.0000 C   0  0  0  0  0  0  0  0  0  0  0  0
   -7.5000    5.1962    0.0000 C   0  0  0  0  0  0  0  0  0  0  0  0
   -8.2500    3.8971    0.0000 C   0  0  0  0  0  0  0  0  0  0  0  0
   -7.5000    2.5981    0.0000 C   0  0  0  0  0  0  0  0  0  0  0  0
   -0.7500    1.2990    0.0000 C   0  0  0  0  0  0  0  0  0  0  0  0
   -1.5000    2.5981    0.0000 Br  0  0  0  0  0  0  0  0  0  0  0  0
    0.7500    1.2990    0.0000 C   0  0  0  0  0  0  0  0  0  0  0  0
    1.5000    2.5981    0.0000 O   0  0  0  0  0  0  0  0  0  0  0  0
    0.7500    3.8971    0.0000 C   0  0  0  0  0  0  0  0  0  0  0  0
    1.5000    5.1962    0.0000 C   0  0  0  0  0  0  0  0  0  0  0  0
    3.0000    5.1962    0.0000 C   0  0  0  0  0  0  0  0  0  0  0  0
    3.7500    6.4952    0.0000 C   0  0  0  0  0  0  0  0  0  0  0  0
    3.0000    7.7942    0.0000 C   0  0  0  0  0  0  0  0  0  0  0  0
    1.5000    7.7942    0.0000 C   0  0  0  0  0  0  0  0  0  0  0  0
    0.7500    6.4952    0.0000 C   0  0  0  0  0  0  0  0  0  0  0  0
  1  2  1  0
  2  3  1  0
  3  4  1  0
  4  5  1  0
  5  6  1  0
  6  7  1  0
  7  8  1  0
  8  9  1  0
  9 10  2  0
 10 11  1  0
 11 12  2  0
 12 13  1  0
 13 14  2  0
  6 15  2  0
 15 16  1  0
 16 17  1  0
 17 18  2  0
 17 19  1  0
 19 20  1  0
 20 21  1  0
 21 22  2  0
 22 23  1  0
 23 24  2  0
 24 25  1  0
 25 26  2  0
 16 27  2  0
 27 28  1  0
 27 29  1  0
 29 30  1  0
 30 31  1  0
 31 32  1  0
 32 33  2  0
 33 34  1  0
 34 35  2  0
 35 36  1  0
 36 37  2  0
 29  5  2  0
 37 32  1  0
 14  9  1  0
 26 21  1  0
M  END
$$$$
42
     RDKit          2D

 34 37  0  0  0  0  0  0  0  0999 V2000
    3.0000   -5.1962    0.0000 O   0  0  0  0  0  0  0  0  0  0  0  0
    1.5000   -5.1962    0.0000 C   0  0  0  0  0  0  0  0  0  0  0  0
    0.7500   -3.8971    0.0000 O   0  0  0  0  0  0  0  0  0  0  0  0
    1.5000   -2.5981    0.0000 C   0  0  0  0  0  0  0  0  0  0  0  0
    0.7500   -1.2990    0.0000 C   0  0  0  0  0  0  0  0  0  0  0  0
    1.5000    0.0000    0.0000 C   0  0  0  0  0  0  0  0  0  0  0  0
    0.7500    1.2990    0.0000 C   0  0  0  0  0  0  0  0  0  0  0  0
   -0.7500    1.2990    0.0000 C   0  0  0  0  0  0  0  0  0  0  0  0
   -1.5000    0.0000    0.0000 C   0  0  0  0  0  0  0  0  0  0  0  0
   -0.7500   -1.2990    0.0000 C   0  0  0  0  0  0  0  0  0  0  0  0
    0.7500   -6.4952    0.0000 C   0  0  0  0  0  0  0  0  0  0  0  0
   -0.7500   -6.4952    0.0000 C   0  0  0  0  0  0  0  0  0  0  0  0
   -1.5000   -7.7942    0.0000 C   0  0  0  0  0  0  0  0  0  0  0  0
   -3.0000   -7.7942    0.0000 O   0  0  0  0  0  0  0  0  0  0  0  0
   -3.7500   -6.4952    0.0000 C   0  0  0  0  0  0  0  0  0  0  0  0
   -5.2500   -6.4952    0.0000 C   0  0  0  0  0  0  0  0  0  0  0  0
   -6.0000   -5.1962    0.0000 C   0  0  0  0  0  0  0  0  0  0  0  0
   -7.5000   -5.1962    0.0000 C   0  0  0  0  0  0  0  0  0  0  0  0
   -8.2500   -6.4952    0.0000 C   0  0  0  0  0  0  0  0  0  0  0  0
   -7.5000   -7.7942    0.0000 C   0  0  0  0  0  0  0  0  0  0  0  0
   -6.0000   -7.7942    0.0000 C   0  0  0  0  0  0  0  0  0  0  0  0
   -0.7500   -9.0933    0.0000 C   0  0  0  0  0  0  0  0  0  0  0  0
   -1.5000  -10.3923    0.0000 O   0  0  0  0  0  0  0  0  0  0  0  0
    0.7500   -9.0933    0.0000 C   0  0  0  0  0  0  0  0  0  0  0  0
    1.5000  -10.3923    0.0000 O   0  0  0  0  0  0  0  0  0  0  0  0
    3.0000  -10.3923    0.0000 C   0  0  0  0  0  0  0  0  0  0  0  0
    3.7500  -11.6913    0.0000 C   0  0  0  0  0  0  0  0  0  0  0  0
    3.0000  -12.9904    0.0000 C   0  0  0  0  0  0  0  0  0  0  0  0
    3.7500  -14.2894    0.0000 C   0  0  0  0  0  0  0  0  0  0  0  0
    5.2500  -14.2894    0.0000 C   0  0  0  0  0  0  0  0  0  0  0  0
    6.0000  -12.9904    0.0000 C   0  0  0  0  0  0  0  0  0  0  0  0
    5.2500  -11.6913    0.0000 C   0  0  0  0  0  0  0  0  0  0  0  0
    1.5000   -7.7942    0.0000 C   0  0  0  0  0  0  0  0  0  0  0  0
    3.0000   -7.7942    0.0000 Br  0  0  0  0  0  0  0  0  0  0  0  0
  1  2  2  0
  2  3  1  0
  3  4  1  0
  4  5  1  0
  5  6  2  0
  6  7  1  0
  7  8  2  0
  8  9  1  0
  9 10  2  0
  2 11  1  0
 11 12  1  0
 12 13  2  0
 13 14  1  0
 14 15  1  0
 15 16  1  0
 16 17  2  0
 17 18  1  0
 18 19  2  0
 19 20  1  0
 20 21  2  0
 13 22  1  0
 22 23  1  0
 22 24  2  0
 24 25  1  0
 25 26  1  0
 26 27  1  0
 27 28  2  0
 28 29  1  0
 29 30  2  0
 30 31  1  0
 31 32  2  0
 24 33  1  0
 33 34  1  0
 10  5  1  0
 33 11  2  0
 21 16  1  0
 32 27  1  0
M  END
$$$$
11
     RDKit          2D

 62 67  0  0  0  0  0  0  0  0999 V2000
    6.0000   -2.5981    0.0000 C   0  0  0  0  0  0  0  0  0  0  0  0
    5.2500   -1.2990    0.0000 C   0  0  0  0  0  0  0  0  0  0  0  0
    3.7500   -1.2990    0.0000 C   0  0  0  0  0  0  0  0  0  0  0  0
    3.0000   -0.0000    0.0000 O   0  0  0  0  0  0  0  0  0  0  0  0
    1.5000   -0.0000    0.0000 C   0  0  0  0  0  0  0  0  0  0  0  0
    0.7500   -1.2990    0.0000 C   0  0  0  0  0  0  0  0  0  0  0  0
   -0.7500   -1.2990    0.0000 C   0  0  0  0  0  0  0  0  0  0  0  0
   -1.5000   -2.5981    0.0000 C   0  0  0  0  0  0  0  0  0  0  0  0
   -0.7500   -3.8971    0.0000 O   0  0  0  0  0  0  0  0  0  0  0  0
   -3.0000   -2.5981    0.0000 O   0  0  0  0  0  0  0  0  0  0  0  0
   -3.7500   -3.8971    0.0000 C   0  0  0  0  0  0  0  0  0  0  0  0
   -5.0490   -3.1471    0.0000 C   0  0  0  0  0  0  0  0  0  0  0  0
   -2.4510   -4.6471    0.0000 C   0  0  0  0  0  0  0  0  0  0  0  0
   -4.5000   -5.1962    0.0000 C   0  0  0  0  0  0  0  0  0  0  0  0
   -1.5000   -0.0000    0.0000 C   0  0  0  0  0  0  0  0  0  0  0  0
   -0.7500    1.2990    0.0000 C   0  0  0  0  0  0  0  0  0  0  0  0
   -1.5000    2.5981    0.0000 O   0  0  0  0  0  0  0  0  0  0  0  0
   -0.7500    3.8971    0.0000 C   0  0  0  0  0  0  0  0  0  0  0  0
   -1.5000    5.1962    0.0000 C   0  0  0  0  0  0  0  0  0  0  0  0
   -0.7500    6.4952    0.0000 C   0  0  0  0  0  0  0  0  0  0  0  0
    0.7500    1.2990    0.0000 C   0  0  0  0  0  0  0  0  0  0  0  0
    1.5000    2.5981    0.0000 O   0  0  0  0  0  0  0  0  0  0  0  0
    3.0000    2.5981    0.0000 C   0  0  0  0  0  0  0  0  0  0  0  0
    3.7500    1.2990    0.0000 C   0  0  0  0  0  0  0  0  0  0  0  0
    3.0000   -0.0000    0.0000 C   0  0  0  0  0  0  0  0  0  0  0  0
    1.5446   -0.3630    0.0000 O   0  0  0  0  0  0  0  0  0  0  0  0
    3.7500   -1.2990    0.0000 O   0  0  0  0  0  0  0  0  0  0  0  0
    3.0000   -2.5981    0.0000 C   0  0  0  0  0  0  0  0  0  0  0  0
    3.7500   -3.8971    0.0000 C   0  0  0  0  0  0  0  0  0  0  0  0
    3.0000   -5.1962    0.0000 C   0  0  0  0  0  0  0  0  0  0  0  0
    3.7500   -6.4952    0.0000 C   0  0  0  0  0  0  0  0  0  0  0  0
    5.2500   -6.4952    0.0000 C   0  0  0  0  0  0  0  0  0  0  0  0
    6.0000   -5.1962    0.0000 C   0  0  0  0  0  0  0  0  0  0  0  0
    5.2500   -3.8971    0.0000 C   0  0  0  0  0  0  0  0  0  0  0  0
    5.2500    1.2990    0.0000 C   0  0  0  0  0  0  0  0  0  0  0  0
    6.0000    2.5981    0.0000 C   0  0  0  0  0  0  0  0  0  0  0  0
    7.5000    2.5981    0.0000 O   0  0  0  0  0  0  0  0  0  0  0  0
    8.2500    1.2990    0.0000 C   0  0  0  0  0  0  0  0  0  0  0  0
    9.7500    1.2990    0.0000 C   0  0  0  0  0  0  0  0  0  0  0  0
   10.5000   -0.0000    0.0000 C   0  0  0  0  0  0  0  0  0  0  0  0
   12.0000   -0.0000    0.0000 C   0  0  0  0  0  0  0  0  0  0  0  0
   12.7500    1.2990    0.0000 C   0  0  0  0  0  0  0  0  0  0  0  0
   12.0000    2.5981    0.0000 C   0  0  0  0  0  0  0  0  0  0  0  0
   10.5000    2.5981    0.0000 C   0  0  0  0  0  0  0  0  0  0  0  0
    5.2500    3.8971    0.0000 C   0  0  0  0  0  0  0  0  0  0  0  0
    6.0000    5.1962    0.0000 O   0  0  0  0  0  0  0  0  0  0  0  0
    5.2500    6.4952    0.0000 C   0  0  0  0  0  0  0  0  0  0  0  0
    6.0000    7.7942    0.0000 C   0  0  0  0  0  0  0  0  0  0  0  0
    7.5000    7.7942    0.0000 C   0  0  0  0  0  0  0  0  0  0  0  0
    8.2500    9.0933    0.0000 C   0  0  0  0  0  0  0  0  0  0  0  0
    7.5000   10.3923    0.0000 C   0  0  0  0  0  0  0  0  0  0  0  0
    6.0000   10.3923    0.0000 C   0  0  0  0  0  0  0  0  0  0  0  0
    5.2500    9.0933    0.0000 C   0  0  0  0  0  0  0  0  0  0  0  0
    3.7500    3.8971    0.0000 C   0  0  0  0  0  0  0  0  0  0  0  0
    3.0000    5.1962    0.0000 O   0  0  0  0  0  0  0  0  0  0  0  0
    3.7500    6.4952    0.0000 C   0  0  0  0  0  0  0  0  0  0  0  0
    3.0000    7.7942    0.0000 C   0  0  0  0  0  0  0  0  0  0  0  0
    3.7500    9.0933    0.0000 C   0  0  0  0  0  0  0  0  0  0  0  0
    3.0000   10.3923    0.0000 C   0  0  0  0  0  0  0  0  0  0  0  0
    1.5000   10.3923    0.0000 C   0  0  0  0  0  0  0  0  0  0  0  0
    0.7500    9.0933    0.0000 C   0  0  0  0  0  0  0  0  0  0  0  0
    1.5000    7.7942    0.0000 C   0  0  0  0  0  0  0  0  0  0  0  0
  1  2  2  0
  2  3  1  0
  3  4  1  0
  4  5  1  0
  5  6  1  0
  6  7  2  0
  7  8  1  0
  8  9  2  0
  8 10  1  0
 10 11  1  0
 11 12  1  0
 11 13  1  0
 11 14  1  0
  7 15  1  0
 15 16  2  0
 16 17  1  0
 17 18  1  0
 18 19  1  0
 19 20  2  0
 16 21  1  0
 21 22  1  0
 22 23  1  0
 23 24  2  0
 24 25  1  0
 25 26  2  0
 25 27  1  0
 27 28  1  0
 28 29  1  0
 29 30  2  0
 30 31  1  0
 31 32  2  0
 32 33  1  0
 33 34  2  0
 24 35  1  0
 35 36  2  0
 36 37  1  0
 37 38  1  0
 38 39  1  0
 39 40  2  0
 40 41  1  0
 41 42  2  0
 42 43  1  0
 43 44  2  0
 36 45  1  0
 45 46  1  0
 46 47  1  0
 47 48  1  0
 48 49  2  0
 49 50  1  0
 50 51  2  0
 51 52  1  0
 52 53  2  0
 45 54  2  0
 54 55  1  0
 55 56  1  0
 56 57  1  0
 57 58  2  0
 58 59  1  0
 59 60  2  0
 60 61  1  0
 61 62  2  0
 21  5  2  0
 54 23  1  0
 62 57  1  0
 34 29  1  0
 44 39  1  0
 53 48  1  0
M  END
$$$$
26
     RDKit          2D

 56 61  0  0  0  0  0  0  0  0999 V2000
   -4.7010   -8.5442    0.0000 C   0  0  0  0  0  0  0  0  0  0  0  0
   -6.0000   -7.7942    0.0000 C   0  0  0  0  0  0  0  0  0  0  0  0
   -7.2990   -7.0442    0.0000 C   0  0  0  0  0  0  0  0  0  0  0  0
   -6.7500   -9.0933    0.0000 C   0  0  0  0  0  0  0  0  0  0  0  0
   -5.2500   -6.4952    0.0000 O   0  0  0  0  0  0  0  0  0  0  0  0
   -6.0000   -5.1962    0.0000 C   0  0  0  0  0  0  0  0  0  0  0  0
   -7.5000   -5.1962    0.0000 O   0  0  0  0  0  0  0  0  0  0  0  0
   -5.2500   -3.8971    0.0000 C   0  0  0  0  0  0  0  0  0  0  0  0
   -3.7500   -3.8971    0.0000 C   0  0  0  0  0  0  0  0  0  0  0  0
   -3.0000   -2.5981    0.0000 C   0  0  0  0  0  0  0  0  0  0  0  0
   -1.5000   -2.5981    0.0000 O   0  0  0  0  0  0  0  0  0  0  0  0
   -3.7500   -1.2990    0.0000 C   0  0  0  0  0  0  0  0  0  0  0  0
   -3.0000    0.0000    0.0000 O   0  0  0  0  0  0  0  0  0  0  0  0
   -3.7500    1.2990    0.0000 C   0  0  0  0  0  0  0  0  0  0  0  0
   -3.0000    2.5981    0.0000 C   0  0  0  0  0  0  0  0  0  0  0  0
   -1.5000    2.5981    0.0000 C   0  0  0  0  0  0  0  0  0  0  0  0
   -0.7500    1.2990    0.0000 O   0  0  0  0  0  0  0  0  0  0  0  0
   -0.7500    3.8971    0.0000 O   0  0  0  0  0  0  0  0  0  0  0  0
    0.7500    3.8971    0.0000 C   0  0  0  0  0  0  0  0  0  0  0  0
    1.5000    5.1962    0.0000 C   0  0  0  0  0  0  0  0  0  0  0  0
    3.0000    5.1962    0.0000 C   0  0  0  0  0  0  0  0  0  0  0  0
    3.7500    6.4952    0.0000 C   0  0  0  0  0  0  0  0  0  0  0  0
    3.0000    7.7942    0.0000 C   0  0  0  0  0  0  0  0  0  0  0  0
    1.5000    7.7942    0.0000 C   0  0  0  0  0  0  0  0  0  0  0  0
    0.7500    6.4952    0.0000 C   0  0  0  0  0  0  0  0  0  0  0  0
   -3.7500    3.8971    0.0000 C   0  0  0  0  0  0  0  0  0  0  0  0
   -5.2500    3.8971    0.0000 C   0  0  0  0  0  0  0  0  0  0  0  0
   -6.0000    5.1962    0.0000 O   0  0  0  0  0  0  0  0  0  0  0  0
   -5.2500    6.4952    0.0000 C   0  0  0  0  0  0  0  0  0  0  0  0
   -6.0000    7.7942    0.0000 C   0  0  0  0  0  0  0  0  0  0  0  0
   -5.2500    9.0933    0.0000 C   0  0  0  0  0  0  0  0  0  0  0  0
   -6.0000   10.3923    0.0000 C   0  0  0  0  0  0  0  0  0  0  0  0
   -7.5000   10.3923    0.0000 C   0  0  0  0  0  0  0  0  0  0  0  0
   -8.2500    9.0933    0.0000 C   0  0  0  0  0  0  0  0  0  0  0  0
   -7.5000    7.7942    0.0000 C   0  0  0  0  0  0  0  0  0  0  0  0
   -6.0000    2.5981    0.0000 C   0  0  0  0  0  0  0  0  0  0  0  0
   -7.5000    2.5981    0.0000 O   0  0  0  0  0  0  0  0  0  0  0  0
   -8.2500    1.2990    0.0000 C   0  0  0  0  0  0  0  0  0  0  0  0
   -9.7500    1.2990    0.0000 C   0  0  0  0  0  0  0  0  0  0  0  0
  -10.5000    2.5981    0.0000 C   0  0  0  0  0  0  0  0  0  0  0  0
  -12.0000    2.5981    0.0000 C   0  0  0  0  0  0  0  0  0  0  0  0
  -12.7500    1.2990    0.0000 C   0  0  0  0  0  0  0  0  0  0  0  0
  -12.0000    0.0000    0.0000 C   0  0  0  0  0  0  0  0  0  0  0  0
  -10.5000    0.0000    0.0000 C   0  0  0  0  0  0  0  0  0  0  0  0
   -5.2500    1.2990    0.0000 C   0  0  0  0  0  0  0  0  0  0  0  0
   -6.0000    0.0000    0.0000 O   0  0  0  0  0  0  0  0  0  0  0  0
   -7.5000    0.0000    0.0000 C   0  0  0  0  0  0  0  0  0  0  0  0
   -8.2500   -1.2990    0.0000 C   0  0  0  0  0  0  0  0  0  0  0  0
   -9.7500   -1.2990    0.0000 C   0  0  0  0  0  0  0  0  0  0  0  0
  -10.5000   -2.5981    0.0000 C   0  0  0  0  0  0  0  0  0  0  0  0
   -9.7500   -3.8971    0.0000 C   0  0  0  0  0  0  0  0  0  0  0  0
   -8.2500   -3.8971    0.0000 C   0  0  0  0  0  0  0  0  0  0  0  0
   -7.5000   -2.5981    0.0000 C   0  0  0  0  0  0  0  0  0  0  0  0
   -5.2500   -1.2990    0.0000 C   0  0  0  0  0  0  0  0  0  0  0  0
   -5.8038   -0.7256    0.0000 O   0  0  0  0  0  0  0  0  0  0  0  0
   -6.0000   -2.5981    0.0000 C   0  0  0  0  0  0  0  0  0  0  0  0
  1  2  1  0
  2  3  1  0
  2  4  1  0
  2  5  1  0
  5  6  1  0
  6  7  2  0
  6  8  1  0
  8  9  2  0
  9 10  1  0
 10 11  1  0
 10 12  2  0
 12 13  1  0
 13 14  1  0
 14 15  2  0
 15 16  1  0
 16 17  2  0
 16 18  1  0
 18 19  1  0
 19 20  1  0
 20 21  2  0
 21 22  1  0
 22 23  2  0
 23 24  1  0
 24 25  2  0
 15 26  1  0
 26 27  2  0
 27 28  1  0
 28 29  1  0
 29 30  1  0
 30 31  2  0
 31 32  1  0
 32 33  2  0
 33 34  1  0
 34 35  2  0
 27 36  1  0
 36 37  1  0
 37 38  1  0
 38 39  1  0
 39 40  2  0
 40 41  1  0
 41 42  2  0
 42 43  1  0
 43 44  2  0
 36 45  2  0
 45 46  1  0
 46 47  1  0
 47 48  1  0
 48 49  2  0
 49 50  1  0
 50 51  2  0
 51 52  1  0
 52 53  2  0
 12 54  1  0
 54 55  1  0
 54 56  2  0
 56  8  1  0
 45 14  1  0
 53 48  1  0
 25 20  1  0
 35 30  1  0
 44 39  1  0
M  END
$$$$
27
     RDKit          2D

 52 57  0  0  0  0  0  0  0  0999 V2000
   -5.2500   -6.4952    0.0000 O   0  0  0  0  0  0  0  0  0  0  0  0
   -6.0000   -5.1962    0.0000 C   0  0  0  0  0  0  0  0  0  0  0  0
   -7.5000   -5.1962    0.0000 O   0  0  0  0  0  0  0  0  0  0  0  0
   -5.2500   -3.8971    0.0000 C   0  0  0  0  0  0  0  0  0  0  0  0
   -6.0000   -2.5981    0.0000 C   0  0  0  0  0  0  0  0  0  0  0  0
   -5.2500   -1.2990    0.0000 C   0  0  0  0  0  0  0  0  0  0  0  0
   -5.8038   -0.7256    0.0000 O   0  0  0  0  0  0  0  0  0  0  0  0
   -3.7500   -1.2990    0.0000 C   0  0  0  0  0  0  0  0  0  0  0  0
   -3.0000    0.0000    0.0000 O   0  0  0  0  0  0  0  0  0  0  0  0
   -3.7500    1.2990    0.0000 C   0  0  0  0  0  0  0  0  0  0  0  0
   -3.0000    2.5981    0.0000 C   0  0  0  0  0  0  0  0  0  0  0  0
   -1.5000    2.5981    0.0000 C   0  0  0  0  0  0  0  0  0  0  0  0
   -0.7500    1.2990    0.0000 O   0  0  0  0  0  0  0  0  0  0  0  0
   -0.7500    3.8971    0.0000 O   0  0  0  0  0  0  0  0  0  0  0  0
    0.7500    3.8971    0.0000 C   0  0  0  0  0  0  0  0  0  0  0  0
    1.5000    5.1962    0.0000 C   0  0  0  0  0  0  0  0  0  0  0  0
    3.0000    5.1962    0.0000 C   0  0  0  0  0  0  0  0  0  0  0  0
    3.7500    6.4952    0.0000 C   0  0  0  0  0  0  0  0  0  0  0  0
    3.0000    7.7942    0.0000 C   0  0  0  0  0  0  0  0  0  0  0  0
    1.5000    7.7942    0.0000 C   0  0  0  0  0  0  0  0  0  0  0  0
    0.7500    6.4952    0.0000 C   0  0  0  0  0  0  0  0  0  0  0  0
   -3.7500    3.8971    0.0000 C   0  0  0  0  0  0  0  0  0  0  0  0
   -5.2500    3.8971    0.0000 C   0  0  0  0  0  0  0  0  0  0  0  0
   -6.0000    5.1962    0.0000 O   0  0  0  0  0  0  0  0  0  0  0  0
   -5.2500    6.4952    0.0000 C   0  0  0  0  0  0  0  0  0  0  0  0
   -6.0000    7.7942    0.0000 C   0  0  0  0  0  0  0  0  0  0  0  0
   -5.2500    9.0933    0.0000 C   0  0  0  0  0  0  0  0  0  0  0  0
   -6.0000   10.3923    0.0000 C   0  0  0  0  0  0  0  0  0  0  0  0
   -7.5000   10.3923    0.0000 C   0  0  0  0  0  0  0  0  0  0  0  0
   -8.2500    9.0933    0.0000 C   0  0  0  0  0  0  0  0  0  0  0  0
   -7.5000    7.7942    0.0000 C   0  0  0  0  0  0  0  0  0  0  0  0
   -6.0000    2.5981    0.0000 C   0  0  0  0  0  0  0  0  0  0  0  0
   -7.5000    2.5981    0.0000 O   0  0  0  0  0  0  0  0  0  0  0  0
   -8.2500    1.2990    0.0000 C   0  0  0  0  0  0  0  0  0  0  0  0
   -9.7500    1.2990    0.0000 C   0  0  0  0  0  0  0  0  0  0  0  0
  -10.5000    2.5981    0.0000 C   0  0  0  0  0  0  0  0  0  0  0  0
  -12.0000    2.5981    0.0000 C   0  0  0  0  0  0  0  0  0  0  0  0
  -12.7500    1.2990    0.0000 C   0  0  0  0  0  0  0  0  0  0  0  0
  -12.0000    0.0000    0.0000 C   0  0  0  0  0  0  0  0  0  0  0  0
  -10.5000    0.0000    0.0000 C   0  0  0  0  0  0  0  0  0  0  0  0
   -5.2500    1.2990    0.0000 C   0  0  0  0  0  0  0  0  0  0  0  0
   -6.0000    0.0000    0.0000 O   0  0  0  0  0  0  0  0  0  0  0  0
   -7.5000    0.0000    0.0000 C   0  0  0  0  0  0  0  0  0  0  0  0
   -8.2500   -1.2990    0.0000 C   0  0  0  0  0  0  0  0  0  0  0  0
   -9.7500   -1.2990    0.0000 C   0  0  0  0  0  0  0  0  0  0  0  0
  -10.5000   -2.5981    0.0000 C   0  0  0  0  0  0  0  0  0  0  0  0
   -9.7500   -3.8971    0.0000 C   0  0  0  0  0  0  0  0  0  0  0  0
   -8.2500   -3.8971    0.0000 C   0  0  0  0  0  0  0  0  0  0  0  0
   -7.5000   -2.5981    0.0000 C   0  0  0  0  0  0  0  0  0  0  0  0
   -3.0000   -2.5981    0.0000 C   0  0  0  0  0  0  0  0  0  0  0  0
   -1.5000   -2.5981    0.0000 O   0  0  0  0  0  0  0  0  0  0  0  0
   -3.7500   -3.8971    0.0000 C   0  0  0  0  0  0  0  0  0  0  0  0
  1  2  2  0
  2  3  1  0
  2  4  1  0
  4  5  2  0
  5  6  1  0
  6  7  1  0
  6  8  2  0
  8  9  1  0
  9 10  1  0
 10 11  2  0
 11 12  1  0
 12 13  2  0
 12 14  1  0
 14 15  1  0
 15 16  1  0
 16 17  2  0
 17 18  1  0
 18 19  2  0
 19 20  1  0
 20 21  2  0
 11 22  1  0
 22 23  2  0
 23 24  1  0
 24 25  1  0
 25 26  1  0
 26 27  2  0
 27 28  1  0
 28 29  2  0
 29 30  1  0
 30 31  2  0
 23 32  1  0
 32 33  1  0
 33 34  1  0
 34 35  1  0
 35 36  2  0
 36 37  1  0
 37 38  2  0
 38 39  1  0
 39 40  2  0
 32 41  2  0
 41 42  1  0
 42 43  1  0
 43 44  1  0
 44 45  2  0
 45 46  1  0
 46 47  2  0
 47 48  1  0
 48 49  2  0
  8 50  1  0
 50 51  1  0
 50 52  2  0
 52  4  1  0
 41 10  1  0
 49 44  1  0
 21 16  1  0
 31 26  1  0
 40 35  1  0
M  END
$$$$
7
     RDKit          2D

 66 71  0  0  0  0  0  0  0  0999 V2000
   -4.5000    4.0981    0.0000 C   0  0  0  0  0  0  0  0  0  0  0  0
   -4.5000    2.5981    0.0000 C   0  0  0  0  0  0  0  0  0  0  0  0
   -4.5000    1.0981    0.0000 C   0  0  0  0  0  0  0  0  0  0  0  0
   -6.0000    2.5981    0.0000 C   0  0  0  0  0  0  0  0  0  0  0  0
   -3.0000    2.5981    0.0000 Si  0  0  0  0  0  4  0  0  0  0  0  0
   -3.0000    1.0981    0.0000 C   0  0  0  0  0  0  0  0  0  0  0  0
   -3.0000    4.0981    0.0000 C   0  0  0  0  0  0  0  0  0  0  0  0
   -1.5000    2.5981    0.0000 O   0  0  0  0  0  0  0  0  0  0  0  0
   -0.7500    3.8971    0.0000 C   0  0  0  0  0  0  0  0  0  0  0  0
   -1.5000    5.1962    0.0000 C   0  0  0  0  0  0  0  0  0  0  0  0
   -0.7500    6.4952    0.0000 C   0  0  0  0  0  0  0  0  0  0  0  0
   -1.5000    7.7942    0.0000 C   0  0  0  0  0  0  0  0  0  0  0  0
   -3.0000    7.7942    0.0000 O   0  0  0  0  0  0  0  0  0  0  0  0
   -0.7500    9.0933    0.0000 O   0  0  0  0  0  0  0  0  0  0  0  0
    0.7500    6.4952    0.0000 C   0  0  0  0  0  0  0  0  0  0  0  0
    1.5000    5.1962    0.0000 C   0  0  0  0  0  0  0  0  0  0  0  0
    3.0000    5.1962    0.0000 O   0  0  0  0  0  0  0  0  0  0  0  0
    3.7500    6.4952    0.0000 Si  0  0  0  0  0  4  0  0  0  0  0  0
    5.0490    5.7452    0.0000 C   0  0  0  0  0  0  0  0  0  0  0  0
    2.4510    7.2452    0.0000 C   0  0  0  0  0  0  0  0  0  0  0  0
    4.5000    7.7942    0.0000 C   0  0  0  0  0  0  0  0  0  0  0  0
    3.2010    8.5442    0.0000 C   0  0  0  0  0  0  0  0  0  0  0  0
    5.7990    7.0442    0.0000 C   0  0  0  0  0  0  0  0  0  0  0  0
    5.2500    9.0933    0.0000 C   0  0  0  0  0  0  0  0  0  0  0  0
    0.7500    3.8971    0.0000 C   0  0  0  0  0  0  0  0  0  0  0  0
    1.5000    2.5981    0.0000 O   0  0  0  0  0  0  0  0  0  0  0  0
    3.0000    2.5981    0.0000 C   0  0  0  0  0  0  0  0  0  0  0  0
    3.7500    1.2990    0.0000 C   0  0  0  0  0  0  0  0  0  0  0  0
    3.0000   -0.0000    0.0000 C   0  0  0  0  0  0  0  0  0  0  0  0
    1.5000    0.0000    0.0000 O   0  0  0  0  0  0  0  0  0  0  0  0
    3.7500   -1.2990    0.0000 O   0  0  0  0  0  0  0  0  0  0  0  0
    3.0000   -2.5981    0.0000 C   0  0  0  0  0  0  0  0  0  0  0  0
    3.7500   -3.8971    0.0000 C   0  0  0  0  0  0  0  0  0  0  0  0
    3.0000   -5.1962    0.0000 C   0  0  0  0  0  0  0  0  0  0  0  0
    3.7500   -6.4952    0.0000 C   0  0  0  0  0  0  0  0  0  0  0  0
    5.2500   -6.4952    0.0000 C   0  0  0  0  0  0  0  0  0  0  0  0
    6.0000   -5.1962    0.0000 C   0  0  0  0  0  0  0  0  0  0  0  0
    5.2500   -3.8971    0.0000 C   0  0  0  0  0  0  0  0  0  0  0  0
    5.2500    1.2990    0.0000 C   0  0  0  0  0  0  0  0  0  0  0  0
    6.0000    2.5981    0.0000 C   0  0  0  0  0  0  0  0  0  0  0  0
    7.5000    2.5981    0.0000 O   0  0  0  0  0  0  0  0  0  0  0  0
    8.2500    1.2990    0.0000 C   0  0  0  0  0  0  0  0  0  0  0  0
    9.7500    1.2990    0.0000 C   0  0  0  0  0  0  0  0  0  0  0  0
   10.5000   -0.0000    0.0000 C   0  0  0  0  0  0  0  0  0  0  0  0
   12.0000   -0.0000    0.0000 C   0  0  0  0  0  0  0  0  0  0  0  0
   12.7500    1.2990    0.0000 C   0  0  0  0  0  0  0  0  0  0  0  0
   12.0000    2.5981    0.0000 C   0  0  0  0  0  0  0  0  0  0  0  0
   10.5000    2.5981    0.0000 C   0  0  0  0  0  0  0  0  0  0  0  0
    5.2500    3.8971    0.0000 C   0  0  0  0  0  0  0  0  0  0  0  0
    6.0000    5.1962    0.0000 O   0  0  0  0  0  0  0  0  0  0  0  0
    7.5000    5.1962    0.0000 C   0  0  0  0  0  0  0  0  0  0  0  0
    8.2500    6.4952    0.0000 C   0  0  0  0  0  0  0  0  0  0  0  0
    7.5000    7.7942    0.0000 C   0  0  0  0  0  0  0  0  0  0  0  0
    8.2500    9.0933    0.0000 C   0  0  0  0  0  0  0  0  0  0  0  0
    9.7500    9.0933    0.0000 C   0  0  0  0  0  0  0  0  0  0  0  0
   10.5000    7.7942    0.0000 C   0  0  0  0  0  0  0  0  0  0  0  0
    9.7500    6.4952    0.0000 C   0  0  0  0  0  0  0  0  0  0  0  0
    3.7500    3.8971    0.0000 C   0  0  0  0  0  0  0  0  0  0  0  0
    3.0000    5.1962    0.0000 O   0  0  0  0  0  0  0  0  0  0  0  0
    3.7500    6.4952    0.0000 C   0  0  0  0  0  0  0  0  0  0  0  0
    3.0000    7.7942    0.0000 C   0  0  0  0  0  0  0  0  0  0  0  0
    3.7500    9.0933    0.0000 C   0  0  0  0  0  0  0  0  0  0  0  0
    3.0000   10.3923    0.0000 C   0  0  0  0  0  0  0  0  0  0  0  0
    1.5000   10.3923    0.0000 C   0  0  0  0  0  0  0  0  0  0  0  0
    0.7500    9.0933    0.0000 C   0  0  0  0  0  0  0  0  0  0  0  0
    1.5000    7.7942    0.0000 C   0  0  0  0  0  0  0  0  0  0  0  0
  1  2  1  0
  2  3  1  0
  2  4  1  0
  2  5  1  0
  5  6  1  0
  5  7  1  0
  5  8  1  0
  8  9  1  0
  9 10  1  0
 10 11  2  0
 11 12  1  0
 12 13  2  0
 12 14  1  0
 11 15  1  0
 15 16  2  0
 16 17  1  0
 17 18  1  0
 18 19  1  0
 18 20  1  0
 18 21  1  0
 21 22  1  0
 21 23  1  0
 21 24  1  0
 16 25  1  0
 25 26  1  0
 26 27  1  0
 27 28  2  0
 28 29  1  0
 29 30  2  0
 29 31  1  0
 31 32  1  0
 32 33  1  0
 33 34  2  0
 34 35  1  0
 35 36  2  0
 36 37  1  0
 37 38  2  0
 28 39  1  0
 39 40  2  0
 40 41  1  0
 41 42  1  0
 42 43  1  0
 43 44  2  0
 44 45  1  0
 45 46  2  0
 46 47  1  0
 47 48  2  0
 40 49  1  0
 49 50  1  0
 50 51  1  0
 51 52  1  0
 52 53  2  0
 53 54  1  0
 54 55  2  0
 55 56  1  0
 56 57  2  0
 49 58  2  0
 58 59  1  0
 59 60  1  0
 60 61  1  0
 61 62  2  0
 62 63  1  0
 63 64  2  0
 64 65  1  0
 65 66  2  0
 25  9  2  0
 58 27  1  0
 66 61  1  0
 38 33  1  0
 48 43  1  0
 57 52  1  0
M  END
$$$$
28
     RDKit          2D

173192  0  0  0  0  0  0  0  0999 V2000
    5.4510   -8.3433    0.0000 C   0  0  0  0  0  0  0  0  0  0  0  0
    6.7500   -9.0933    0.0000 C   0  0  0  0  0  0  0  0  0  0  0  0
    8.0490   -9.8433    0.0000 C   0  0  0  0  0  0  0  0  0  0  0  0
    6.0000  -10.3923    0.0000 C   0  0  0  0  0  0  0  0  0  0  0  0
    7.5000   -7.7942    0.0000 Si  0  0  0  0  0  4  0  0  0  0  0  0
    8.7990   -8.5442    0.0000 C   0  0  0  0  0  0  0  0  0  0  0  0
    6.2010   -7.0442    0.0000 C   0  0  0  0  0  0  0  0  0  0  0  0
    8.2500   -6.4952    0.0000 O   0  0  0  0  0  0  0  0  0  0  0  0
    7.5000   -5.1962    0.0000 C   0  0  0  0  0  0  0  0  0  0  0  0
    6.0000   -5.1962    0.0000 C   0  0  0  0  0  0  0  0  0  0  0  0
    5.2500   -3.8971    0.0000 C   0  0  0  0  0  0  0  0  0  0  0  0
    3.7500   -3.8971    0.0000 C   0  0  0  0  0  0  0  0  0  0  0  0
    3.0000   -5.1962    0.0000 O   0  0  0  0  0  0  0  0  0  0  0  0
    3.0000   -2.5981    0.0000 O   0  0  0  0  0  0  0  0  0  0  0  0
    1.5000   -2.5981    0.0000 C   0  0  0  0  0  0  0  0  0  0  0  0
    0.7500   -1.2990    0.0000 C   0  0  0  0  0  0  0  0  0  0  0  0
    1.5000    0.0000    0.0000 O   0  0  0  0  0  0  0  0  0  0  0  0
    0.7500    1.2990    0.0000 C   0  0  0  0  0  0  0  0  0  0  0  0
    1.5000    2.5981    0.0000 O   0  0  0  0  0  0  0  0  0  0  0  0
    3.0000    2.5981    0.0000 C   0  0  0  0  0  0  0  0  0  0  0  0
    3.7500    1.2990    0.0000 O   0  0  0  0  0  0  0  0  0  0  0  0
    3.7500    3.8971    0.0000 C   0  0  0  0  0  0  0  0  0  0  0  0
    5.2500    3.8971    0.0000 C   0  0  0  0  0  0  0  0  0  0  0  0
    6.0000    5.1962    0.0000 C   0  0  0  0  0  0  0  0  0  0  0  0
    7.5000    5.1962    0.0000 O   0  0  0  0  0  0  0  0  0  0  0  0
    8.2500    3.8971    0.0000 C   0  0  0  0  0  0  0  0  0  0  0  0
    9.7500    3.8971    0.0000 C   0  0  0  0  0  0  0  0  0  0  0  0
   10.5000    2.5981    0.0000 C   0  0  0  0  0  0  0  0  0  0  0  0
   12.0000    2.5981    0.0000 C   0  0  0  0  0  0  0  0  0  0  0  0
   12.7500    3.8971    0.0000 C   0  0  0  0  0  0  0  0  0  0  0  0
   12.0000    5.1962    0.0000 C   0  0  0  0  0  0  0  0  0  0  0  0
   10.5000    5.1962    0.0000 C   0  0  0  0  0  0  0  0  0  0  0  0
    5.2500    6.4952    0.0000 C   0  0  0  0  0  0  0  0  0  0  0  0
    6.0000    7.7942    0.0000 O   0  0  0  0  0  0  0  0  0  0  0  0
    5.2500    9.0933    0.0000 C   0  0  0  0  0  0  0  0  0  0  0  0
    6.0000   10.3923    0.0000 C   0  0  0  0  0  0  0  0  0  0  0  0
    7.5000   10.3923    0.0000 C   0  0  0  0  0  0  0  0  0  0  0  0
    8.2500   11.6913    0.0000 C   0  0  0  0  0  0  0  0  0  0  0  0
    7.5000   12.9904    0.0000 C   0  0  0  0  0  0  0  0  0  0  0  0
    6.0000   12.9904    0.0000 C   0  0  0  0  0  0  0  0  0  0  0  0
    5.2500   11.6913    0.0000 C   0  0  0  0  0  0  0  0  0  0  0  0
    3.7500    6.4952    0.0000 C   0  0  0  0  0  0  0  0  0  0  0  0
    3.0000    7.7942    0.0000 O   0  0  0  0  0  0  0  0  0  0  0  0
    1.5000    7.7942    0.0000 C   0  0  0  0  0  0  0  0  0  0  0  0
    0.7500    9.0933    0.0000 C   0  0  0  0  0  0  0  0  0  0  0  0
    1.5000   10.3923    0.0000 C   0  0  0  0  0  0  0  0  0  0  0  0
    0.7500   11.6913    0.0000 C   0  0  0  0  0  0  0  0  0  0  0  0
   -0.7500   11.6913    0.0000 C   0  0  0  0  0  0  0  0  0  0  0  0
   -1.5000   10.3923    0.0000 C   0  0  0  0  0  0  0  0  0  0  0  0
   -0.7500    9.0933    0.0000 C   0  0  0  0  0  0  0  0  0  0  0  0
    3.0000    5.1962    0.0000 C   0  0  0  0  0  0  0  0  0  0  0  0
   -0.7500    1.2990    0.0000 C   0  0  0  0  0  0  0  0  0  0  0  0
   -0.9068    2.7908    0.0000 O   0  0  0  0  0  0  0  0  0  0  0  0
   -1.9105    3.9055    0.0000 C   0  0  0  0  0  0  0  0  0  0  0  0
   -1.1605    5.2046    0.0000 O   0  0  0  0  0  0  0  0  0  0  0  0
   -3.3777    4.2174    0.0000 C   0  0  0  0  0  0  0  0  0  0  0  0
   -3.2209    5.7092    0.0000 C   0  0  0  0  0  0  0  0  0  0  0  0
   -4.4344    6.5909    0.0000 C   0  0  0  0  0  0  0  0  0  0  0  0
   -4.2777    8.0826    0.0000 O   0  0  0  0  0  0  0  0  0  0  0  0
   -5.4912    8.9643    0.0000 C   0  0  0  0  0  0  0  0  0  0  0  0
   -5.3344   10.4561    0.0000 C   0  0  0  0  0  0  0  0  0  0  0  0
   -6.5479   11.3378    0.0000 C   0  0  0  0  0  0  0  0  0  0  0  0
   -6.3911   12.8296    0.0000 C   0  0  0  0  0  0  0  0  0  0  0  0
   -5.0208   13.4397    0.0000 C   0  0  0  0  0  0  0  0  0  0  0  0
   -3.8073   12.5580    0.0000 C   0  0  0  0  0  0  0  0  0  0  0  0
   -3.9641   11.0662    0.0000 C   0  0  0  0  0  0  0  0  0  0  0  0
   -5.8048    5.9808    0.0000 C   0  0  0  0  0  0  0  0  0  0  0  0
   -7.0183    6.8624    0.0000 O   0  0  0  0  0  0  0  0  0  0  0  0
   -6.8615    8.3542    0.0000 C   0  0  0  0  0  0  0  0  0  0  0  0
   -8.0750    9.2359    0.0000 C   0  0  0  0  0  0  0  0  0  0  0  0
   -7.9182   10.7277    0.0000 C   0  0  0  0  0  0  0  0  0  0  0  0
   -9.1318   11.6094    0.0000 C   0  0  0  0  0  0  0  0  0  0  0  0
  -10.5021   10.9993    0.0000 C   0  0  0  0  0  0  0  0  0  0  0  0
  -10.6589    9.5075    0.0000 C   0  0  0  0  0  0  0  0  0  0  0  0
   -9.4453    8.6258    0.0000 C   0  0  0  0  0  0  0  0  0  0  0  0
   -5.9616    4.4890    0.0000 C   0  0  0  0  0  0  0  0  0  0  0  0
   -7.3319    3.8789    0.0000 O   0  0  0  0  0  0  0  0  0  0  0  0
   -8.5454    4.7606    0.0000 C   0  0  0  0  0  0  0  0  0  0  0  0
   -9.9157    4.1504    0.0000 C   0  0  0  0  0  0  0  0  0  0  0  0
  -11.1292    5.0321    0.0000 C   0  0  0  0  0  0  0  0  0  0  0  0
  -12.4996    4.4220    0.0000 C   0  0  0  0  0  0  0  0  0  0  0  0
  -12.6564    2.9302    0.0000 C   0  0  0  0  0  0  0  0  0  0  0  0
  -11.4428    2.0486    0.0000 C   0  0  0  0  0  0  0  0  0  0  0  0
  -10.0725    2.6587    0.0000 C   0  0  0  0  0  0  0  0  0  0  0  0
   -4.7480    3.6073    0.0000 C   0  0  0  0  0  0  0  0  0  0  0  0
   -5.4980    2.3083    0.0000 C   0  0  0  0  0  0  0  0  0  0  0  0
   -5.3412    0.8165    0.0000 C   0  0  0  0  0  0  0  0  0  0  0  0
   -6.5548   -0.0652    0.0000 C   0  0  0  0  0  0  0  0  0  0  0  0
   -7.9251    0.5449    0.0000 C   0  0  0  0  0  0  0  0  0  0  0  0
   -9.1386   -0.3368    0.0000 O   0  0  0  0  0  0  0  0  0  0  0  0
  -10.5089    0.2733    0.0000 C   0  0  0  0  0  0  0  0  0  0  0  0
  -11.7224   -0.6083    0.0000 C   0  0  0  0  0  0  0  0  0  0  0  0
  -13.0928    0.0018    0.0000 C   0  0  0  0  0  0  0  0  0  0  0  0
  -14.3063   -0.8799    0.0000 C   0  0  0  0  0  0  0  0  0  0  0  0
  -14.1495   -2.3717    0.0000 C   0  0  0  0  0  0  0  0  0  0  0  0
  -12.7792   -2.9818    0.0000 C   0  0  0  0  0  0  0  0  0  0  0  0
  -11.5657   -2.1001    0.0000 C   0  0  0  0  0  0  0  0  0  0  0  0
   -8.0819    2.0367    0.0000 C   0  0  0  0  0  0  0  0  0  0  0  0
   -9.4522    2.6468    0.0000 O   0  0  0  0  0  0  0  0  0  0  0  0
  -10.6657    1.7651    0.0000 C   0  0  0  0  0  0  0  0  0  0  0  0
  -12.0360    2.3752    0.0000 C   0  0  0  0  0  0  0  0  0  0  0  0
  -12.1928    3.8670    0.0000 C   0  0  0  0  0  0  0  0  0  0  0  0
  -13.5631    4.4771    0.0000 C   0  0  0  0  0  0  0  0  0  0  0  0
  -14.7767    3.5954    0.0000 C   0  0  0  0  0  0  0  0  0  0  0  0
  -14.6199    2.1036    0.0000 C   0  0  0  0  0  0  0  0  0  0  0  0
  -13.2496    1.4935    0.0000 C   0  0  0  0  0  0  0  0  0  0  0  0
   -6.8683    2.9184    0.0000 C   0  0  0  0  0  0  0  0  0  0  0  0
   -7.0251    4.4102    0.0000 O   0  0  0  0  0  0  0  0  0  0  0  0
   -8.3955    5.0203    0.0000 C   0  0  0  0  0  0  0  0  0  0  0  0
   -8.5522    6.5120    0.0000 C   0  0  0  0  0  0  0  0  0  0  0  0
   -7.3387    7.3937    0.0000 C   0  0  0  0  0  0  0  0  0  0  0  0
   -7.4955    8.8855    0.0000 C   0  0  0  0  0  0  0  0  0  0  0  0
   -8.8658    9.4956    0.0000 C   0  0  0  0  0  0  0  0  0  0  0  0
  -10.0794    8.6139    0.0000 C   0  0  0  0  0  0  0  0  0  0  0  0
   -9.9226    7.1221    0.0000 C   0  0  0  0  0  0  0  0  0  0  0  0
   -4.3375   -0.2982    0.0000 C   0  0  0  0  0  0  0  0  0  0  0  0
   -5.0875   -1.5973    0.0000 O   0  0  0  0  0  0  0  0  0  0  0  0
   -2.8703   -0.6101    0.0000 O   0  0  0  0  0  0  0  0  0  0  0  0
   -1.5000    0.0000    0.0000 C   0  0  0  0  0  0  0  0  0  0  0  0
   -0.7500   -1.2990    0.0000 C   0  0  0  0  0  0  0  0  0  0  0  0
   -1.5000   -2.5981    0.0000 O   0  0  0  0  0  0  0  0  0  0  0  0
    6.0000   -2.5981    0.0000 C   0  0  0  0  0  0  0  0  0  0  0  0
    7.5000   -2.5981    0.0000 C   0  0  0  0  0  0  0  0  0  0  0  0
    8.2500   -1.2990    0.0000 O   0  0  0  0  0  0  0  0  0  0  0  0
    9.7500   -1.2990    0.0000 Si  0  0  0  0  0  4  0  0  0  0  0  0
    9.7500    0.2010    0.0000 C   0  0  0  0  0  0  0  0  0  0  0  0
    9.7500   -2.7990    0.0000 C   0  0  0  0  0  0  0  0  0  0  0  0
   11.2500   -1.2990    0.0000 C   0  0  0  0  0  0  0  0  0  0  0  0
   11.2500   -2.7990    0.0000 C   0  0  0  0  0  0  0  0  0  0  0  0
   11.2500    0.2010    0.0000 C   0  0  0  0  0  0  0  0  0  0  0  0
   12.7500   -1.2990    0.0000 C   0  0  0  0  0  0  0  0  0  0  0  0
    8.2500   -3.8971    0.0000 C   0  0  0  0  0  0  0  0  0  0  0  0
    9.7500   -3.8971    0.0000 O   0  0  0  0  0  0  0  0  0  0  0  0
   10.5000   -5.1962    0.0000 C   0  0  0  0  0  0  0  0  0  0  0  0
    9.7500   -6.4952    0.0000 C   0  0  0  0  0  0  0  0  0  0  0  0
    8.2500   -6.4952    0.0000 C   0  0  0  0  0  0  0  0  0  0  0  0
    7.8366   -7.9371    0.0000 O   0  0  0  0  0  0  0  0  0  0  0  0
    7.5000   -5.1962    0.0000 O   0  0  0  0  0  0  0  0  0  0  0  0
    6.0000   -5.1962    0.0000 C   0  0  0  0  0  0  0  0  0  0  0  0
    5.2500   -3.8971    0.0000 C   0  0  0  0  0  0  0  0  0  0  0  0
    6.0000   -2.5981    0.0000 C   0  0  0  0  0  0  0  0  0  0  0  0
    5.2500   -1.2990    0.0000 C   0  0  0  0  0  0  0  0  0  0  0  0
    3.7500   -1.2990    0.0000 C   0  0  0  0  0  0  0  0  0  0  0  0
    3.0000   -2.5981    0.0000 C   0  0  0  0  0  0  0  0  0  0  0  0
    3.7500   -3.8971    0.0000 C   0  0  0  0  0  0  0  0  0  0  0  0
   10.5000   -7.7942    0.0000 C   0  0  0  0  0  0  0  0  0  0  0  0
   12.0000   -7.7942    0.0000 C   0  0  0  0  0  0  0  0  0  0  0  0
   12.7500   -9.0933    0.0000 O   0  0  0  0  0  0  0  0  0  0  0  0
   12.0000  -10.3923    0.0000 C   0  0  0  0  0  0  0  0  0  0  0  0
   12.7500  -11.6913    0.0000 C   0  0  0  0  0  0  0  0  0  0  0  0
   12.0000  -12.9904    0.0000 C   0  0  0  0  0  0  0  0  0  0  0  0
   12.7500  -14.2894    0.0000 C   0  0  0  0  0  0  0  0  0  0  0  0
   14.2500  -14.2894    0.0000 C   0  0  0  0  0  0  0  0  0  0  0  0
   15.0000  -12.9904    0.0000 C   0  0  0  0  0  0  0  0  0  0  0  0
   14.2500  -11.6913    0.0000 C   0  0  0  0  0  0  0  0  0  0  0  0
   12.7500   -6.4952    0.0000 C   0  0  0  0  0  0  0  0  0  0  0  0
   14.2500   -6.4952    0.0000 O   0  0  0  0  0  0  0  0  0  0  0  0
   15.0000   -5.1962    0.0000 C   0  0  0  0  0  0  0  0  0  0  0  0
   16.5000   -5.1962    0.0000 C   0  0  0  0  0  0  0  0  0  0  0  0
   17.2500   -6.4952    0.0000 C   0  0  0  0  0  0  0  0  0  0  0  0
   18.7500   -6.4952    0.0000 C   0  0  0  0  0  0  0  0  0  0  0  0
   19.5000   -5.1962    0.0000 C   0  0  0  0  0  0  0  0  0  0  0  0
   18.7500   -3.8971    0.0000 C   0  0  0  0  0  0  0  0  0  0  0  0
   17.2500   -3.8971    0.0000 C   0  0  0  0  0  0  0  0  0  0  0  0
   12.0000   -5.1962    0.0000 C   0  0  0  0  0  0  0  0  0  0  0  0
   12.7500   -3.8971    0.0000 O   0  0  0  0  0  0  0  0  0  0  0  0
   14.2500   -3.8971    0.0000 C   0  0  0  0  0  0  0  0  0  0  0  0
   15.0000   -2.5981    0.0000 C   0  0  0  0  0  0  0  0  0  0  0  0
   16.5000   -2.5981    0.0000 C   0  0  0  0  0  0  0  0  0  0  0  0
   17.2500   -1.2990    0.0000 C   0  0  0  0  0  0  0  0  0  0  0  0
   16.5000    0.0000    0.0000 C   0  0  0  0  0  0  0  0  0  0  0  0
   15.0000    0.0000    0.0000 C   0  0  0  0  0  0  0  0  0  0  0  0
   14.2500   -1.2990    0.0000 C   0  0  0  0  0  0  0  0  0  0  0  0
  1  2  1  0
  2  3  1  0
  2  4  1  0
  2  5  1  0
  5  6  1  0
  5  7  1  0
  5  8  1  0
  8  9  1  0
  9 10  1  0
 10 11  2  0
 11 12  1  0
 12 13  2  0
 12 14  1  0
 14 15  1  0
 16 15  1  6
 16 17  1  0
 17 18  1  0
 18 19  1  6
 19 20  1  0
 20 21  2  0
 20 22  1  0
 22 23  2  0
 23 24  1  0
 24 25  1  0
 25 26  1  0
 26 27  1  0
 27 28  2  0
 28 29  1  0
 29 30  2  0
 30 31  1  0
 31 32  2  0
 24 33  2  0
 33 34  1  0
 34 35  1  0
 35 36  1  0
 36 37  2  0
 37 38  1  0
 38 39  2  0
 39 40  1  0
 40 41  2  0
 33 42  1  0
 42 43  1  0
 43 44  1  0
 44 45  1  0
 45 46  2  0
 46 47  1  0
 47 48  2  0
 48 49  1  0
 49 50  2  0
 42 51  2  0
 18 52  1  0
 52 53  1  1
 53 54  1  0
 54 55  2  0
 54 56  1  0
 56 57  1  0
 57 58  2  0
 58 59  1  0
 59 60  1  0
 60 61  1  0
 61 62  2  0
 62 63  1  0
 63 64  2  0
 64 65  1  0
 65 66  2  0
 58 67  1  0
 67 68  1  0
 68 69  1  0
 69 70  1  0
 70 71  2  0
 71 72  1  0
 72 73  2  0
 73 74  1  0
 74 75  2  0
 67 76  2  0
 76 77  1  0
 77 78  1  0
 78 79  1  0
 79 80  2  0
 80 81  1  0
 81 82  2  0
 82 83  1  0
 83 84  2  0
 76 85  1  0
 85 86  1  0
 86 87  2  0
 87 88  1  0
 88 89  2  0
 89 90  1  0
 90 91  1  0
 91 92  1  0
 92 93  2  0
 93 94  1  0
 94 95  2  0
 95 96  1  0
 96 97  2  0
 89 98  1  0
 98 99  1  0
 99100  1  0
100101  1  0
101102  2  0
102103  1  0
103104  2  0
104105  1  0
105106  2  0
 98107  2  0
107108  1  0
108109  1  0
109110  1  0
110111  2  0
111112  1  0
112113  2  0
113114  1  0
114115  2  0
 87116  1  0
116117  2  0
116118  1  0
119118  1  6
119120  1  0
120121  1  1
 11122  1  0
122123  2  0
123124  1  0
124125  1  0
125126  1  0
125127  1  0
125128  1  0
128129  1  0
128130  1  0
128131  1  0
123132  1  0
132133  1  0
133134  1  0
134135  2  0
135136  1  0
136137  2  0
136138  1  0
138139  1  0
139140  1  0
140141  2  0
141142  1  0
142143  2  0
143144  1  0
144145  2  0
135146  1  0
146147  2  0
147148  1  0
148149  1  0
149150  1  0
150151  2  0
151152  1  0
152153  2  0
153154  1  0
154155  2  0
147156  1  0
156157  1  0
157158  1  0
158159  1  0
159160  2  0
160161  1  0
161162  2  0
162163  1  0
163164  2  0
156165  2  0
165166  1  0
166167  1  0
167168  1  0
168169  2  0
169170  1  0
170171  2  0
171172  1  0
172173  2  0
132  9  2  0
165134  1  0
173168  1  0
120 16  1  0
145140  1  0
155150  1  0
164159  1  0
 51 22  1  0
119 52  1  0
 32 27  1  0
 41 36  1  0
 50 45  1  0
 85 56  2  0
107 86  1  0
115110  1  0
 66 61  1  0
 75 70  1  0
 84 79  1  0
 97 92  1  0
106101  1  0
M  END
$$$$
29
     RDKit          2D

205226  0  0  0  0  0  0  0  0999 V2000
    9.9072   -7.9696    0.0000 C   0  0  0  0  0  0  0  0  0  0  0  0
   11.3990   -7.8128    0.0000 C   0  0  0  0  0  0  0  0  0  0  0  0
   12.8907   -7.6560    0.0000 C   0  0  0  0  0  0  0  0  0  0  0  0
   11.9121   -9.2223    0.0000 C   0  0  0  0  0  0  0  0  0  0  0  0
   11.2422   -6.3211    0.0000 Si  0  0  0  0  0  4  0  0  0  0  0  0
   12.7340   -6.1643    0.0000 C   0  0  0  0  0  0  0  0  0  0  0  0
    9.7504   -6.4778    0.0000 C   0  0  0  0  0  0  0  0  0  0  0  0
   11.0854   -4.8293    0.0000 O   0  0  0  0  0  0  0  0  0  0  0  0
    9.7151   -4.2192    0.0000 C   0  0  0  0  0  0  0  0  0  0  0  0
    8.5015   -5.1008    0.0000 C   0  0  0  0  0  0  0  0  0  0  0  0
    7.1312   -4.4907    0.0000 C   0  0  0  0  0  0  0  0  0  0  0  0
    5.9177   -5.3724    0.0000 C   0  0  0  0  0  0  0  0  0  0  0  0
    6.0745   -6.8642    0.0000 O   0  0  0  0  0  0  0  0  0  0  0  0
    4.5474   -4.7623    0.0000 O   0  0  0  0  0  0  0  0  0  0  0  0
    3.3338   -5.6440    0.0000 C   0  0  0  0  0  0  0  0  0  0  0  0
    1.9635   -5.0339    0.0000 C   0  0  0  0  0  0  0  0  0  0  0  0
    2.4271   -3.6073    0.0000 O   0  0  0  0  0  0  0  0  0  0  0  0
    1.9635   -2.1807    0.0000 C   0  0  0  0  0  0  0  0  0  0  0  0
    3.1771   -1.2990    0.0000 O   0  0  0  0  0  0  0  0  0  0  0  0
    0.7500   -1.2990    0.0000 C   0  0  0  0  0  0  0  0  0  0  0  0
    1.5000    0.0000    0.0000 C   0  0  0  0  0  0  0  0  0  0  0  0
    0.7500    1.2990    0.0000 C   0  0  0  0  0  0  0  0  0  0  0  0
    1.5000    2.5981    0.0000 O   0  0  0  0  0  0  0  0  0  0  0  0
    3.0000    2.5981    0.0000 C   0  0  0  0  0  0  0  0  0  0  0  0
    3.7500    3.8971    0.0000 C   0  0  0  0  0  0  0  0  0  0  0  0
    5.2500    3.8971    0.0000 C   0  0  0  0  0  0  0  0  0  0  0  0
    6.0000    5.1962    0.0000 C   0  0  0  0  0  0  0  0  0  0  0  0
    5.2500    6.4952    0.0000 C   0  0  0  0  0  0  0  0  0  0  0  0
    3.7500    6.4952    0.0000 C   0  0  0  0  0  0  0  0  0  0  0  0
    3.0000    5.1962    0.0000 C   0  0  0  0  0  0  0  0  0  0  0  0
   -0.7500    1.2990    0.0000 C   0  0  0  0  0  0  0  0  0  0  0  0
   -1.5000    2.5981    0.0000 O   0  0  0  0  0  0  0  0  0  0  0  0
   -0.7500    3.8971    0.0000 C   0  0  0  0  0  0  0  0  0  0  0  0
   -1.5000    5.1962    0.0000 C   0  0  0  0  0  0  0  0  0  0  0  0
   -0.7500    6.4952    0.0000 C   0  0  0  0  0  0  0  0  0  0  0  0
   -1.5000    7.7942    0.0000 C   0  0  0  0  0  0  0  0  0  0  0  0
   -3.0000    7.7942    0.0000 C   0  0  0  0  0  0  0  0  0  0  0  0
   -3.7500    6.4952    0.0000 C   0  0  0  0  0  0  0  0  0  0  0  0
   -3.0000    5.1962    0.0000 C   0  0  0  0  0  0  0  0  0  0  0  0
   -1.5000    0.0000    0.0000 C   0  0  0  0  0  0  0  0  0  0  0  0
   -3.0000    0.0000    0.0000 O   0  0  0  0  0  0  0  0  0  0  0  0
   -3.7500    1.2990    0.0000 C   0  0  0  0  0  0  0  0  0  0  0  0
   -5.2500    1.2990    0.0000 C   0  0  0  0  0  0  0  0  0  0  0  0
   -6.0000   -0.0000    0.0000 C   0  0  0  0  0  0  0  0  0  0  0  0
   -7.5000    0.0000    0.0000 C   0  0  0  0  0  0  0  0  0  0  0  0
   -8.2500    1.2990    0.0000 C   0  0  0  0  0  0  0  0  0  0  0  0
   -7.5000    2.5981    0.0000 C   0  0  0  0  0  0  0  0  0  0  0  0
   -6.0000    2.5981    0.0000 C   0  0  0  0  0  0  0  0  0  0  0  0
   -0.7500   -1.2990    0.0000 C   0  0  0  0  0  0  0  0  0  0  0  0
   -1.9635   -2.1807    0.0000 C   0  0  0  0  0  0  0  0  0  0  0  0
   -2.4271   -3.6073    0.0000 C   0  0  0  0  0  0  0  0  0  0  0  0
   -3.8943   -3.9192    0.0000 C   0  0  0  0  0  0  0  0  0  0  0  0
   -4.8980   -2.8045    0.0000 C   0  0  0  0  0  0  0  0  0  0  0  0
   -6.3652   -3.1163    0.0000 O   0  0  0  0  0  0  0  0  0  0  0  0
   -7.3689   -2.0016    0.0000 C   0  0  0  0  0  0  0  0  0  0  0  0
   -8.8361   -2.3135    0.0000 C   0  0  0  0  0  0  0  0  0  0  0  0
   -9.8398   -1.1988    0.0000 C   0  0  0  0  0  0  0  0  0  0  0  0
  -11.3070   -1.5106    0.0000 C   0  0  0  0  0  0  0  0  0  0  0  0
  -11.7705   -2.9372    0.0000 C   0  0  0  0  0  0  0  0  0  0  0  0
  -10.7669   -4.0519    0.0000 C   0  0  0  0  0  0  0  0  0  0  0  0
   -9.2996   -3.7401    0.0000 C   0  0  0  0  0  0  0  0  0  0  0  0
   -4.4344   -1.3779    0.0000 C   0  0  0  0  0  0  0  0  0  0  0  0
   -5.4381   -0.2631    0.0000 O   0  0  0  0  0  0  0  0  0  0  0  0
   -6.9054   -0.5750    0.0000 C   0  0  0  0  0  0  0  0  0  0  0  0
   -7.9091    0.5397    0.0000 C   0  0  0  0  0  0  0  0  0  0  0  0
   -7.4455    1.9663    0.0000 C   0  0  0  0  0  0  0  0  0  0  0  0
   -8.4492    3.0810    0.0000 C   0  0  0  0  0  0  0  0  0  0  0  0
   -9.9164    2.7691    0.0000 C   0  0  0  0  0  0  0  0  0  0  0  0
  -10.3800    1.3426    0.0000 C   0  0  0  0  0  0  0  0  0  0  0  0
   -9.3763    0.2278    0.0000 C   0  0  0  0  0  0  0  0  0  0  0  0
   -2.9672   -1.0660    0.0000 C   0  0  0  0  0  0  0  0  0  0  0  0
   -2.5037    0.3606    0.0000 O   0  0  0  0  0  0  0  0  0  0  0  0
   -3.5074    1.4753    0.0000 C   0  0  0  0  0  0  0  0  0  0  0  0
   -3.0439    2.9019    0.0000 C   0  0  0  0  0  0  0  0  0  0  0  0
   -1.5766    3.2138    0.0000 C   0  0  0  0  0  0  0  0  0  0  0  0
   -1.1131    4.6403    0.0000 C   0  0  0  0  0  0  0  0  0  0  0  0
   -2.1168    5.7551    0.0000 C   0  0  0  0  0  0  0  0  0  0  0  0
   -3.5840    5.4432    0.0000 C   0  0  0  0  0  0  0  0  0  0  0  0
   -4.0476    4.0166    0.0000 C   0  0  0  0  0  0  0  0  0  0  0  0
   -1.9635   -5.0339    0.0000 C   0  0  0  0  0  0  0  0  0  0  0  0
   -3.1771   -5.9156    0.0000 O   0  0  0  0  0  0  0  0  0  0  0  0
   -0.7500   -5.9156    0.0000 O   0  0  0  0  0  0  0  0  0  0  0  0
    0.7500   -5.9156    0.0000 C   0  0  0  0  0  0  0  0  0  0  0  0
    0.9068   -7.4073    0.0000 C   0  0  0  0  0  0  0  0  0  0  0  0
   -0.3067   -8.2890    0.0000 O   0  0  0  0  0  0  0  0  0  0  0  0
   -0.1499   -9.7808    0.0000 C   0  0  0  0  0  0  0  0  0  0  0  0
    1.2204  -10.3909    0.0000 O   0  0  0  0  0  0  0  0  0  0  0  0
   -1.3635  -10.6625    0.0000 C   0  0  0  0  0  0  0  0  0  0  0  0
   -2.7338  -10.0524    0.0000 C   0  0  0  0  0  0  0  0  0  0  0  0
   -3.9473  -10.9341    0.0000 C   0  0  0  0  0  0  0  0  0  0  0  0
   -5.3176  -10.3240    0.0000 O   0  0  0  0  0  0  0  0  0  0  0  0
   -5.4744   -8.8322    0.0000 C   0  0  0  0  0  0  0  0  0  0  0  0
   -6.8447   -8.2221    0.0000 C   0  0  0  0  0  0  0  0  0  0  0  0
   -7.0015   -6.7303    0.0000 C   0  0  0  0  0  0  0  0  0  0  0  0
   -8.3718   -6.1202    0.0000 C   0  0  0  0  0  0  0  0  0  0  0  0
   -9.5854   -7.0019    0.0000 C   0  0  0  0  0  0  0  0  0  0  0  0
   -9.4286   -8.4936    0.0000 C   0  0  0  0  0  0  0  0  0  0  0  0
   -8.0583   -9.1037    0.0000 C   0  0  0  0  0  0  0  0  0  0  0  0
   -3.7905  -12.4258    0.0000 C   0  0  0  0  0  0  0  0  0  0  0  0
   -5.0040  -13.3075    0.0000 O   0  0  0  0  0  0  0  0  0  0  0  0
   -4.8472  -14.7993    0.0000 C   0  0  0  0  0  0  0  0  0  0  0  0
   -6.0608  -15.6810    0.0000 C   0  0  0  0  0  0  0  0  0  0  0  0
   -7.4311  -15.0709    0.0000 C   0  0  0  0  0  0  0  0  0  0  0  0
   -8.6446  -15.9526    0.0000 C   0  0  0  0  0  0  0  0  0  0  0  0
   -8.4878  -17.4443    0.0000 C   0  0  0  0  0  0  0  0  0  0  0  0
   -7.1175  -18.0544    0.0000 C   0  0  0  0  0  0  0  0  0  0  0  0
   -5.9040  -17.1728    0.0000 C   0  0  0  0  0  0  0  0  0  0  0  0
   -2.4202  -13.0359    0.0000 C   0  0  0  0  0  0  0  0  0  0  0  0
   -2.2634  -14.5277    0.0000 O   0  0  0  0  0  0  0  0  0  0  0  0
   -0.8931  -15.1378    0.0000 C   0  0  0  0  0  0  0  0  0  0  0  0
   -0.7363  -16.6296    0.0000 C   0  0  0  0  0  0  0  0  0  0  0  0
   -1.9498  -17.5113    0.0000 C   0  0  0  0  0  0  0  0  0  0  0  0
   -1.7930  -19.0031    0.0000 C   0  0  0  0  0  0  0  0  0  0  0  0
   -0.4227  -19.6132    0.0000 C   0  0  0  0  0  0  0  0  0  0  0  0
    0.7908  -18.7315    0.0000 C   0  0  0  0  0  0  0  0  0  0  0  0
    0.6340  -17.2397    0.0000 C   0  0  0  0  0  0  0  0  0  0  0  0
   -1.2067  -12.1543    0.0000 C   0  0  0  0  0  0  0  0  0  0  0  0
    2.2771   -8.0175    0.0000 O   0  0  0  0  0  0  0  0  0  0  0  0
    3.4906   -7.1358    0.0000 C   0  0  0  0  0  0  0  0  0  0  0  0
    4.8610   -7.7459    0.0000 C   0  0  0  0  0  0  0  0  0  0  0  0
    5.0177   -9.2377    0.0000 O   0  0  0  0  0  0  0  0  0  0  0  0
    6.3881   -9.8478    0.0000 C   0  0  0  0  0  0  0  0  0  0  0  0
    7.6016   -8.9661    0.0000 O   0  0  0  0  0  0  0  0  0  0  0  0
    6.5449  -11.3395    0.0000 C   0  0  0  0  0  0  0  0  0  0  0  0
    5.3313  -12.2212    0.0000 C   0  0  0  0  0  0  0  0  0  0  0  0
    5.4881  -13.7130    0.0000 C   0  0  0  0  0  0  0  0  0  0  0  0
    4.2746  -14.5947    0.0000 O   0  0  0  0  0  0  0  0  0  0  0  0
    2.9043  -13.9846    0.0000 Si  0  0  0  0  0  4  0  0  0  0  0  0
    2.2942  -15.3549    0.0000 C   0  0  0  0  0  0  0  0  0  0  0  0
    3.5144  -12.6143    0.0000 C   0  0  0  0  0  0  0  0  0  0  0  0
    1.5340  -13.3745    0.0000 C   0  0  0  0  0  0  0  0  0  0  0  0
    2.1441  -12.0042    0.0000 C   0  0  0  0  0  0  0  0  0  0  0  0
    0.9239  -14.7448    0.0000 C   0  0  0  0  0  0  0  0  0  0  0  0
    0.1636  -12.7644    0.0000 C   0  0  0  0  0  0  0  0  0  0  0  0
    6.8584  -14.3231    0.0000 C   0  0  0  0  0  0  0  0  0  0  0  0
    7.0152  -15.8149    0.0000 O   0  0  0  0  0  0  0  0  0  0  0  0
    8.3856  -16.4250    0.0000 C   0  0  0  0  0  0  0  0  0  0  0  0
    8.5423  -17.9168    0.0000 C   0  0  0  0  0  0  0  0  0  0  0  0
    7.3288  -18.7985    0.0000 C   0  0  0  0  0  0  0  0  0  0  0  0
    5.9585  -18.1884    0.0000 O   0  0  0  0  0  0  0  0  0  0  0  0
    7.4856  -20.2902    0.0000 O   0  0  0  0  0  0  0  0  0  0  0  0
    6.2721  -21.1719    0.0000 C   0  0  0  0  0  0  0  0  0  0  0  0
    6.4289  -22.6637    0.0000 C   0  0  0  0  0  0  0  0  0  0  0  0
    5.2154  -23.5454    0.0000 C   0  0  0  0  0  0  0  0  0  0  0  0
    5.3721  -25.0372    0.0000 C   0  0  0  0  0  0  0  0  0  0  0  0
    6.7425  -25.6473    0.0000 C   0  0  0  0  0  0  0  0  0  0  0  0
    7.9560  -24.7656    0.0000 C   0  0  0  0  0  0  0  0  0  0  0  0
    7.7992  -23.2738    0.0000 C   0  0  0  0  0  0  0  0  0  0  0  0
    9.9127  -18.5269    0.0000 C   0  0  0  0  0  0  0  0  0  0  0  0
   11.1262  -17.6452    0.0000 C   0  0  0  0  0  0  0  0  0  0  0  0
   12.4965  -18.2553    0.0000 O   0  0  0  0  0  0  0  0  0  0  0  0
   12.6533  -19.7471    0.0000 C   0  0  0  0  0  0  0  0  0  0  0  0
   14.0236  -20.3572    0.0000 C   0  0  0  0  0  0  0  0  0  0  0  0
   14.1804  -21.8490    0.0000 C   0  0  0  0  0  0  0  0  0  0  0  0
   15.5507  -22.4591    0.0000 C   0  0  0  0  0  0  0  0  0  0  0  0
   16.7643  -21.5774    0.0000 C   0  0  0  0  0  0  0  0  0  0  0  0
   16.6075  -20.0856    0.0000 C   0  0  0  0  0  0  0  0  0  0  0  0
   15.2371  -19.4755    0.0000 C   0  0  0  0  0  0  0  0  0  0  0  0
   10.9694  -16.1534    0.0000 C   0  0  0  0  0  0  0  0  0  0  0  0
   12.1829  -15.2718    0.0000 O   0  0  0  0  0  0  0  0  0  0  0  0
   13.5532  -15.8819    0.0000 C   0  0  0  0  0  0  0  0  0  0  0  0
   14.7668  -15.0002    0.0000 C   0  0  0  0  0  0  0  0  0  0  0  0
   16.1371  -15.6103    0.0000 C   0  0  0  0  0  0  0  0  0  0  0  0
   17.3506  -14.7286    0.0000 C   0  0  0  0  0  0  0  0  0  0  0  0
   17.1938  -13.2368    0.0000 C   0  0  0  0  0  0  0  0  0  0  0  0
   15.8235  -12.6267    0.0000 C   0  0  0  0  0  0  0  0  0  0  0  0
   14.6100  -13.5084    0.0000 C   0  0  0  0  0  0  0  0  0  0  0  0
    9.5991  -15.5433    0.0000 C   0  0  0  0  0  0  0  0  0  0  0  0
    9.4423  -14.0515    0.0000 O   0  0  0  0  0  0  0  0  0  0  0  0
   10.6558  -13.1699    0.0000 C   0  0  0  0  0  0  0  0  0  0  0  0
   10.4990  -11.6781    0.0000 C   0  0  0  0  0  0  0  0  0  0  0  0
   11.7125  -10.7964    0.0000 C   0  0  0  0  0  0  0  0  0  0  0  0
   11.5558   -9.3046    0.0000 C   0  0  0  0  0  0  0  0  0  0  0  0
   10.1854   -8.6945    0.0000 C   0  0  0  0  0  0  0  0  0  0  0  0
    8.9719   -9.5762    0.0000 C   0  0  0  0  0  0  0  0  0  0  0  0
    9.1287  -11.0680    0.0000 C   0  0  0  0  0  0  0  0  0  0  0  0
    8.0720  -13.4414    0.0000 C   0  0  0  0  0  0  0  0  0  0  0  0
    9.4423  -14.0515    0.0000 O   0  0  0  0  0  0  0  0  0  0  0  0
   10.6558  -13.1699    0.0000 Si  0  0  0  0  0  4  0  0  0  0  0  0
   11.5375  -14.3834    0.0000 C   0  0  0  0  0  0  0  0  0  0  0  0
    9.7741  -11.9563    0.0000 C   0  0  0  0  0  0  0  0  0  0  0  0
   11.8693  -12.2882    0.0000 C   0  0  0  0  0  0  0  0  0  0  0  0
   10.9877  -11.0747    0.0000 C   0  0  0  0  0  0  0  0  0  0  0  0
   12.7510  -13.5017    0.0000 C   0  0  0  0  0  0  0  0  0  0  0  0
   13.0829  -11.4065    0.0000 C   0  0  0  0  0  0  0  0  0  0  0  0
    7.9152  -11.9497    0.0000 C   0  0  0  0  0  0  0  0  0  0  0  0
    6.9744   -2.9990    0.0000 C   0  0  0  0  0  0  0  0  0  0  0  0
    8.1879   -2.1173    0.0000 C   0  0  0  0  0  0  0  0  0  0  0  0
    8.0312   -0.6255    0.0000 O   0  0  0  0  0  0  0  0  0  0  0  0
    9.2447    0.2562    0.0000 Si  0  0  0  0  0  4  0  0  0  0  0  0
    8.3630    1.4697    0.0000 C   0  0  0  0  0  0  0  0  0  0  0  0
   10.1264   -0.9573    0.0000 C   0  0  0  0  0  0  0  0  0  0  0  0
   10.4582    1.1379    0.0000 C   0  0  0  0  0  0  0  0  0  0  0  0
   11.3399   -0.0757    0.0000 C   0  0  0  0  0  0  0  0  0  0  0  0
    9.5765    2.3514    0.0000 C   0  0  0  0  0  0  0  0  0  0  0  0
   11.6717    2.0195    0.0000 C   0  0  0  0  0  0  0  0  0  0  0  0
    9.5583   -2.7274    0.0000 C   0  0  0  0  0  0  0  0  0  0  0  0
   10.7718   -1.8457    0.0000 O   0  0  0  0  0  0  0  0  0  0  0  0
   12.1421   -2.4558    0.0000 C   0  0  0  0  0  0  0  0  0  0  0  0
   13.3556   -1.5741    0.0000 C   0  0  0  0  0  0  0  0  0  0  0  0
   14.7260   -2.1842    0.0000 C   0  0  0  0  0  0  0  0  0  0  0  0
   15.9395   -1.3026    0.0000 C   0  0  0  0  0  0  0  0  0  0  0  0
   15.7827    0.1892    0.0000 C   0  0  0  0  0  0  0  0  0  0  0  0
   14.4124    0.7993    0.0000 C   0  0  0  0  0  0  0  0  0  0  0  0
   13.1988   -0.0824    0.0000 C   0  0  0  0  0  0  0  0  0  0  0  0
  1  2  1  0
  2  3  1  0
  2  4  1  0
  2  5  1  0
  5  6  1  0
  5  7  1  0
  5  8  1  0
  8  9  1  0
  9 10  1  0
 10 11  2  0
 11 12  1  0
 12 13  2  0
 12 14  1  0
 15 14  1  6
 15 16  1  0
 16 17  1  1
 17 18  1  0
 18 19  2  0
 18 20  1  0
 20 21  1  0
 21 22  2  0
 22 23  1  0
 23 24  1  0
 24 25  1  0
 25 26  2  0
 26 27  1  0
 27 28  2  0
 28 29  1  0
 29 30  2  0
 22 31  1  0
 31 32  1  0
 32 33  1  0
 33 34  1  0
 34 35  2  0
 35 36  1  0
 36 37  2  0
 37 38  1  0
 38 39  2  0
 31 40  2  0
 40 41  1  0
 41 42  1  0
 42 43  1  0
 43 44  2  0
 44 45  1  0
 45 46  2  0
 46 47  1  0
 47 48  2  0
 40 49  1  0
 49 50  1  0
 50 51  2  0
 51 52  1  0
 52 53  2  0
 53 54  1  0
 54 55  1  0
 55 56  1  0
 56 57  2  0
 57 58  1  0
 58 59  2  0
 59 60  1  0
 60 61  2  0
 53 62  1  0
 62 63  1  0
 63 64  1  0
 64 65  1  0
 65 66  2  0
 66 67  1  0
 67 68  2  0
 68 69  1  0
 69 70  2  0
 62 71  2  0
 71 72  1  0
 72 73  1  0
 73 74  1  0
 74 75  2  0
 75 76  1  0
 76 77  2  0
 77 78  1  0
 78 79  2  0
 51 80  1  0
 80 81  2  0
 80 82  1  0
 83 82  1  6
 83 84  1  0
 84 85  1  1
 85 86  1  0
 86 87  2  0
 86 88  1  0
 88 89  2  0
 89 90  1  0
 90 91  1  0
 91 92  1  0
 92 93  1  0
 93 94  2  0
 94 95  1  0
 95 96  2  0
 96 97  1  0
 97 98  2  0
 90 99  2  0
 99100  1  0
100101  1  0
101102  1  0
102103  2  0
103104  1  0
104105  2  0
105106  1  0
106107  2  0
 99108  1  0
108109  1  0
109110  1  0
110111  1  0
111112  2  0
112113  1  0
113114  2  0
114115  1  0
115116  2  0
108117  2  0
 84118  1  0
118119  1  0
119120  1  1
120121  1  0
121122  1  0
122123  2  0
122124  1  0
124125  2  0
125126  1  0
126127  1  0
127128  1  0
128129  1  0
128130  1  0
128131  1  0
131132  1  0
131133  1  0
131134  1  0
126135  2  0
135136  1  0
136137  1  0
137138  2  0
138139  1  0
139140  2  0
139141  1  0
141142  1  0
142143  1  0
143144  2  0
144145  1  0
145146  2  0
146147  1  0
147148  2  0
138149  1  0
149150  2  0
150151  1  0
151152  1  0
152153  1  0
153154  2  0
154155  1  0
155156  2  0
156157  1  0
157158  2  0
150159  1  0
159160  1  0
160161  1  0
161162  1  0
162163  2  0
163164  1  0
164165  2  0
165166  1  0
166167  2  0
159168  2  0
168169  1  0
169170  1  0
170171  1  0
171172  2  0
172173  1  0
173174  2  0
174175  1  0
175176  2  0
135177  1  0
177178  1  0
178179  1  0
179180  1  0
179181  1  0
179182  1  0
182183  1  0
182184  1  0
182185  1  0
177186  2  0
 11187  1  0
187188  2  0
188189  1  0
189190  1  0
190191  1  0
190192  1  0
190193  1  0
193194  1  0
193195  1  0
193196  1  0
188197  1  0
197198  1  0
198199  1  0
199200  1  0
200201  2  0
201202  1  0
202203  2  0
203204  1  0
204205  2  0
197  9  2  0
205200  1  0
119 15  1  0
186124  1  0
 83 16  1  0
117 88  1  0
168137  1  0
176171  1  0
 49 20  2  0
 71 50  1  0
 79 74  1  0
 98 93  1  0
107102  1  0
116111  1  0
148143  1  0
158153  1  0
167162  1  0
 30 25  1  0
 39 34  1  0
 48 43  1  0
 61 56  1  0
 70 65  1  0
M  END
$$$$
4
     RDKit          2D

177198  0  0  0  0  0  0  0  0999 V2000
    3.0000   -5.1962    0.0000 O   0  0  0  0  0  0  0  0  0  0  0  0
    1.5000   -5.1962    0.0000 C   0  0  0  0  0  0  0  0  0  0  0  0
    0.7500   -3.8971    0.0000 O   0  0  0  0  0  0  0  0  0  0  0  0
    1.5000   -2.5981    0.0000 C   0  0  0  0  0  0  0  0  0  0  0  0
    0.7500   -1.2990    0.0000 C   0  0  0  0  0  0  0  0  0  0  0  0
    1.5000    0.0000    0.0000 O   0  0  0  0  0  0  0  0  0  0  0  0
    0.7500    1.2990    0.0000 C   0  0  0  0  0  0  0  0  0  0  0  0
    1.5000    2.5981    0.0000 O   0  0  0  0  0  0  0  0  0  0  0  0
    3.0000    2.5981    0.0000 C   0  0  0  0  0  0  0  0  0  0  0  0
    3.7500    1.2990    0.0000 O   0  0  0  0  0  0  0  0  0  0  0  0
    3.7500    3.8971    0.0000 C   0  0  0  0  0  0  0  0  0  0  0  0
    5.2500    3.8971    0.0000 C   0  0  0  0  0  0  0  0  0  0  0  0
    6.0000    5.1962    0.0000 C   0  0  0  0  0  0  0  0  0  0  0  0
    7.5000    5.1962    0.0000 O   0  0  0  0  0  0  0  0  0  0  0  0
    8.2500    3.8971    0.0000 C   0  0  0  0  0  0  0  0  0  0  0  0
    9.7500    3.8971    0.0000 C   0  0  0  0  0  0  0  0  0  0  0  0
   10.5000    2.5981    0.0000 C   0  0  0  0  0  0  0  0  0  0  0  0
   12.0000    2.5981    0.0000 C   0  0  0  0  0  0  0  0  0  0  0  0
   12.7500    3.8971    0.0000 C   0  0  0  0  0  0  0  0  0  0  0  0
   12.0000    5.1962    0.0000 C   0  0  0  0  0  0  0  0  0  0  0  0
   10.5000    5.1962    0.0000 C   0  0  0  0  0  0  0  0  0  0  0  0
    5.2500    6.4952    0.0000 C   0  0  0  0  0  0  0  0  0  0  0  0
    6.0000    7.7942    0.0000 O   0  0  0  0  0  0  0  0  0  0  0  0
    5.2500    9.0933    0.0000 C   0  0  0  0  0  0  0  0  0  0  0  0
    6.0000   10.3923    0.0000 C   0  0  0  0  0  0  0  0  0  0  0  0
    7.5000   10.3923    0.0000 C   0  0  0  0  0  0  0  0  0  0  0  0
    8.2500   11.6913    0.0000 C   0  0  0  0  0  0  0  0  0  0  0  0
    7.5000   12.9904    0.0000 C   0  0  0  0  0  0  0  0  0  0  0  0
    6.0000   12.9904    0.0000 C   0  0  0  0  0  0  0  0  0  0  0  0
    5.2500   11.6913    0.0000 C   0  0  0  0  0  0  0  0  0  0  0  0
    3.7500    6.4952    0.0000 C   0  0  0  0  0  0  0  0  0  0  0  0
    3.0000    7.7942    0.0000 O   0  0  0  0  0  0  0  0  0  0  0  0
    1.5000    7.7942    0.0000 C   0  0  0  0  0  0  0  0  0  0  0  0
    0.7500    9.0933    0.0000 C   0  0  0  0  0  0  0  0  0  0  0  0
    1.5000   10.3923    0.0000 C   0  0  0  0  0  0  0  0  0  0  0  0
    0.7500   11.6913    0.0000 C   0  0  0  0  0  0  0  0  0  0  0  0
   -0.7500   11.6913    0.0000 C   0  0  0  0  0  0  0  0  0  0  0  0
   -1.5000   10.3923    0.0000 C   0  0  0  0  0  0  0  0  0  0  0  0
   -0.7500    9.0933    0.0000 C   0  0  0  0  0  0  0  0  0  0  0  0
    3.0000    5.1962    0.0000 C   0  0  0  0  0  0  0  0  0  0  0  0
   -0.7500    1.2990    0.0000 C   0  0  0  0  0  0  0  0  0  0  0  0
   -0.9068    2.7908    0.0000 O   0  0  0  0  0  0  0  0  0  0  0  0
   -1.9105    3.9055    0.0000 C   0  0  0  0  0  0  0  0  0  0  0  0
   -1.1605    5.2046    0.0000 O   0  0  0  0  0  0  0  0  0  0  0  0
   -3.3777    4.2174    0.0000 C   0  0  0  0  0  0  0  0  0  0  0  0
   -3.2209    5.7092    0.0000 C   0  0  0  0  0  0  0  0  0  0  0  0
   -4.4344    6.5909    0.0000 C   0  0  0  0  0  0  0  0  0  0  0  0
   -4.2777    8.0826    0.0000 O   0  0  0  0  0  0  0  0  0  0  0  0
   -5.4912    8.9643    0.0000 C   0  0  0  0  0  0  0  0  0  0  0  0
   -5.3344   10.4561    0.0000 C   0  0  0  0  0  0  0  0  0  0  0  0
   -6.5479   11.3378    0.0000 C   0  0  0  0  0  0  0  0  0  0  0  0
   -6.3911   12.8296    0.0000 C   0  0  0  0  0  0  0  0  0  0  0  0
   -5.0208   13.4397    0.0000 C   0  0  0  0  0  0  0  0  0  0  0  0
   -3.8073   12.5580    0.0000 C   0  0  0  0  0  0  0  0  0  0  0  0
   -3.9641   11.0662    0.0000 C   0  0  0  0  0  0  0  0  0  0  0  0
   -5.8048    5.9808    0.0000 C   0  0  0  0  0  0  0  0  0  0  0  0
   -7.0183    6.8624    0.0000 O   0  0  0  0  0  0  0  0  0  0  0  0
   -6.8615    8.3542    0.0000 C   0  0  0  0  0  0  0  0  0  0  0  0
   -8.0750    9.2359    0.0000 C   0  0  0  0  0  0  0  0  0  0  0  0
   -7.9182   10.7277    0.0000 C   0  0  0  0  0  0  0  0  0  0  0  0
   -9.1318   11.6094    0.0000 C   0  0  0  0  0  0  0  0  0  0  0  0
  -10.5021   10.9993    0.0000 C   0  0  0  0  0  0  0  0  0  0  0  0
  -10.6589    9.5075    0.0000 C   0  0  0  0  0  0  0  0  0  0  0  0
   -9.4453    8.6258    0.0000 C   0  0  0  0  0  0  0  0  0  0  0  0
   -5.9616    4.4890    0.0000 C   0  0  0  0  0  0  0  0  0  0  0  0
   -7.3319    3.8789    0.0000 O   0  0  0  0  0  0  0  0  0  0  0  0
   -8.5454    4.7606    0.0000 C   0  0  0  0  0  0  0  0  0  0  0  0
   -9.9157    4.1504    0.0000 C   0  0  0  0  0  0  0  0  0  0  0  0
  -11.1292    5.0321    0.0000 C   0  0  0  0  0  0  0  0  0  0  0  0
  -12.4996    4.4220    0.0000 C   0  0  0  0  0  0  0  0  0  0  0  0
  -12.6564    2.9302    0.0000 C   0  0  0  0  0  0  0  0  0  0  0  0
  -11.4428    2.0486    0.0000 C   0  0  0  0  0  0  0  0  0  0  0  0
  -10.0725    2.6587    0.0000 C   0  0  0  0  0  0  0  0  0  0  0  0
   -4.7480    3.6073    0.0000 C   0  0  0  0  0  0  0  0  0  0  0  0
   -5.4980    2.3083    0.0000 C   0  0  0  0  0  0  0  0  0  0  0  0
   -5.3412    0.8165    0.0000 C   0  0  0  0  0  0  0  0  0  0  0  0
   -6.5548   -0.0652    0.0000 C   0  0  0  0  0  0  0  0  0  0  0  0
   -7.9251    0.5449    0.0000 C   0  0  0  0  0  0  0  0  0  0  0  0
   -9.1386   -0.3368    0.0000 O   0  0  0  0  0  0  0  0  0  0  0  0
  -10.5089    0.2733    0.0000 C   0  0  0  0  0  0  0  0  0  0  0  0
  -11.7224   -0.6083    0.0000 C   0  0  0  0  0  0  0  0  0  0  0  0
  -13.0928    0.0018    0.0000 C   0  0  0  0  0  0  0  0  0  0  0  0
  -14.3063   -0.8799    0.0000 C   0  0  0  0  0  0  0  0  0  0  0  0
  -14.1495   -2.3717    0.0000 C   0  0  0  0  0  0  0  0  0  0  0  0
  -12.7792   -2.9818    0.0000 C   0  0  0  0  0  0  0  0  0  0  0  0
  -11.5657   -2.1001    0.0000 C   0  0  0  0  0  0  0  0  0  0  0  0
   -8.0819    2.0367    0.0000 C   0  0  0  0  0  0  0  0  0  0  0  0
   -9.4522    2.6468    0.0000 O   0  0  0  0  0  0  0  0  0  0  0  0
  -10.6657    1.7651    0.0000 C   0  0  0  0  0  0  0  0  0  0  0  0
  -12.0360    2.3752    0.0000 C   0  0  0  0  0  0  0  0  0  0  0  0
  -12.1928    3.8670    0.0000 C   0  0  0  0  0  0  0  0  0  0  0  0
  -13.5631    4.4771    0.0000 C   0  0  0  0  0  0  0  0  0  0  0  0
  -14.7767    3.5954    0.0000 C   0  0  0  0  0  0  0  0  0  0  0  0
  -14.6199    2.1036    0.0000 C   0  0  0  0  0  0  0  0  0  0  0  0
  -13.2496    1.4935    0.0000 C   0  0  0  0  0  0  0  0  0  0  0  0
   -6.8683    2.9184    0.0000 C   0  0  0  0  0  0  0  0  0  0  0  0
   -7.0251    4.4102    0.0000 O   0  0  0  0  0  0  0  0  0  0  0  0
   -8.3955    5.0203    0.0000 C   0  0  0  0  0  0  0  0  0  0  0  0
   -8.5522    6.5120    0.0000 C   0  0  0  0  0  0  0  0  0  0  0  0
   -7.3387    7.3937    0.0000 C   0  0  0  0  0  0  0  0  0  0  0  0
   -7.4955    8.8855    0.0000 C   0  0  0  0  0  0  0  0  0  0  0  0
   -8.8658    9.4956    0.0000 C   0  0  0  0  0  0  0  0  0  0  0  0
  -10.0794    8.6139    0.0000 C   0  0  0  0  0  0  0  0  0  0  0  0
   -9.9226    7.1221    0.0000 C   0  0  0  0  0  0  0  0  0  0  0  0
   -4.3375   -0.2982    0.0000 C   0  0  0  0  0  0  0  0  0  0  0  0
   -5.0875   -1.5973    0.0000 O   0  0  0  0  0  0  0  0  0  0  0  0
   -2.8703   -0.6101    0.0000 O   0  0  0  0  0  0  0  0  0  0  0  0
   -1.5000    0.0000    0.0000 C   0  0  0  0  0  0  0  0  0  0  0  0
   -0.7500   -1.2990    0.0000 C   0  0  0  0  0  0  0  0  0  0  0  0
   -1.5000   -2.5981    0.0000 O   0  0  0  0  0  0  0  0  0  0  0  0
   -0.7500   -3.8971    0.0000 C   0  0  0  0  0  0  0  0  0  0  0  0
    0.7054   -4.2601    0.0000 O   0  0  0  0  0  0  0  0  0  0  0  0
   -1.5000   -5.1962    0.0000 C   0  0  0  0  0  0  0  0  0  0  0  0
   -3.0000   -5.1962    0.0000 C   0  0  0  0  0  0  0  0  0  0  0  0
   -3.7500   -6.4952    0.0000 C   0  0  0  0  0  0  0  0  0  0  0  0
   -5.2500   -6.4952    0.0000 O   0  0  0  0  0  0  0  0  0  0  0  0
   -3.0000   -7.7942    0.0000 C   0  0  0  0  0  0  0  0  0  0  0  0
   -3.7500   -9.0933    0.0000 O   0  0  0  0  0  0  0  0  0  0  0  0
   -5.2500   -9.0933    0.0000 C   0  0  0  0  0  0  0  0  0  0  0  0
   -6.0000  -10.3923    0.0000 C   0  0  0  0  0  0  0  0  0  0  0  0
   -7.5000  -10.3923    0.0000 C   0  0  0  0  0  0  0  0  0  0  0  0
   -8.2500  -11.6913    0.0000 C   0  0  0  0  0  0  0  0  0  0  0  0
   -7.5000  -12.9904    0.0000 C   0  0  0  0  0  0  0  0  0  0  0  0
   -6.0000  -12.9904    0.0000 C   0  0  0  0  0  0  0  0  0  0  0  0
   -5.2500  -11.6913    0.0000 C   0  0  0  0  0  0  0  0  0  0  0  0
   -1.5000   -7.7942    0.0000 C   0  0  0  0  0  0  0  0  0  0  0  0
   -0.4580   -8.8732    0.0000 O   0  0  0  0  0  0  0  0  0  0  0  0
   -0.7500   -6.4952    0.0000 C   0  0  0  0  0  0  0  0  0  0  0  0
    0.7500   -6.4952    0.0000 C   0  0  0  0  0  0  0  0  0  0  0  0
   -0.7500   -6.4952    0.0000 C   0  0  0  0  0  0  0  0  0  0  0  0
   -1.5000   -7.7942    0.0000 C   0  0  0  0  0  0  0  0  0  0  0  0
   -2.9554   -8.1572    0.0000 O   0  0  0  0  0  0  0  0  0  0  0  0
   -0.7500   -9.0933    0.0000 C   0  0  0  0  0  0  0  0  0  0  0  0
   -1.5000  -10.3923    0.0000 O   0  0  0  0  0  0  0  0  0  0  0  0
   -0.7500  -11.6913    0.0000 C   0  0  0  0  0  0  0  0  0  0  0  0
   -1.5000  -12.9904    0.0000 C   0  0  0  0  0  0  0  0  0  0  0  0
   -3.0000  -12.9904    0.0000 C   0  0  0  0  0  0  0  0  0  0  0  0
   -3.7500  -11.6913    0.0000 O   0  0  0  0  0  0  0  0  0  0  0  0
   -3.7500  -14.2894    0.0000 O   0  0  0  0  0  0  0  0  0  0  0  0
   -5.2500  -14.2894    0.0000 C   0  0  0  0  0  0  0  0  0  0  0  0
   -6.0000  -15.5885    0.0000 C   0  0  0  0  0  0  0  0  0  0  0  0
   -7.5000  -15.5885    0.0000 C   0  0  0  0  0  0  0  0  0  0  0  0
   -8.2500  -16.8875    0.0000 C   0  0  0  0  0  0  0  0  0  0  0  0
   -7.5000  -18.1865    0.0000 C   0  0  0  0  0  0  0  0  0  0  0  0
   -6.0000  -18.1865    0.0000 C   0  0  0  0  0  0  0  0  0  0  0  0
   -5.2500  -16.8875    0.0000 C   0  0  0  0  0  0  0  0  0  0  0  0
   -0.7500  -14.2894    0.0000 C   0  0  0  0  0  0  0  0  0  0  0  0
    0.7500  -14.2894    0.0000 C   0  0  0  0  0  0  0  0  0  0  0  0
    1.5000  -15.5885    0.0000 O   0  0  0  0  0  0  0  0  0  0  0  0
    0.7500  -16.8875    0.0000 C   0  0  0  0  0  0  0  0  0  0  0  0
    1.5000  -18.1865    0.0000 C   0  0  0  0  0  0  0  0  0  0  0  0
    0.7500  -19.4856    0.0000 C   0  0  0  0  0  0  0  0  0  0  0  0
    1.5000  -20.7846    0.0000 C   0  0  0  0  0  0  0  0  0  0  0  0
    3.0000  -20.7846    0.0000 C   0  0  0  0  0  0  0  0  0  0  0  0
    3.7500  -19.4856    0.0000 C   0  0  0  0  0  0  0  0  0  0  0  0
    3.0000  -18.1865    0.0000 C   0  0  0  0  0  0  0  0  0  0  0  0
    1.5000  -12.9904    0.0000 C   0  0  0  0  0  0  0  0  0  0  0  0
    3.0000  -12.9904    0.0000 O   0  0  0  0  0  0  0  0  0  0  0  0
    3.7500  -14.2894    0.0000 C   0  0  0  0  0  0  0  0  0  0  0  0
    5.2500  -14.2894    0.0000 C   0  0  0  0  0  0  0  0  0  0  0  0
    6.0000  -15.5885    0.0000 C   0  0  0  0  0  0  0  0  0  0  0  0
    7.5000  -15.5885    0.0000 C   0  0  0  0  0  0  0  0  0  0  0  0
    8.2500  -14.2894    0.0000 C   0  0  0  0  0  0  0  0  0  0  0  0
    7.5000  -12.9904    0.0000 C   0  0  0  0  0  0  0  0  0  0  0  0
    6.0000  -12.9904    0.0000 C   0  0  0  0  0  0  0  0  0  0  0  0
    0.7500  -11.6913    0.0000 C   0  0  0  0  0  0  0  0  0  0  0  0
    1.5000  -10.3923    0.0000 O   0  0  0  0  0  0  0  0  0  0  0  0
    3.0000  -10.3923    0.0000 C   0  0  0  0  0  0  0  0  0  0  0  0
    3.7500   -9.0933    0.0000 C   0  0  0  0  0  0  0  0  0  0  0  0
    5.2500   -9.0933    0.0000 C   0  0  0  0  0  0  0  0  0  0  0  0
    6.0000   -7.7942    0.0000 C   0  0  0  0  0  0  0  0  0  0  0  0
    5.2500   -6.4952    0.0000 C   0  0  0  0  0  0  0  0  0  0  0  0
    3.7500   -6.4952    0.0000 C   0  0  0  0  0  0  0  0  0  0  0  0
    3.0000   -7.7942    0.0000 C   0  0  0  0  0  0  0  0  0  0  0  0
    0.7500   -9.0933    0.0000 C   0  0  0  0  0  0  0  0  0  0  0  0
    1.7920  -10.1722    0.0000 O   0  0  0  0  0  0  0  0  0  0  0  0
    1.5000   -7.7942    0.0000 C   0  0  0  0  0  0  0  0  0  0  0  0
  1  2  2  0
  2  3  1  0
  3  4  1  0
  5  4  1  6
  5  6  1  0
  6  7  1  0
  7  8  1  6
  8  9  1  0
  9 10  2  0
  9 11  1  0
 11 12  2  0
 12 13  1  0
 13 14  1  0
 14 15  1  0
 15 16  1  0
 16 17  2  0
 17 18  1  0
 18 19  2  0
 19 20  1  0
 20 21  2  0
 13 22  2  0
 22 23  1  0
 23 24  1  0
 24 25  1  0
 25 26  2  0
 26 27  1  0
 27 28  2  0
 28 29  1  0
 29 30  2  0
 22 31  1  0
 31 32  1  0
 32 33  1  0
 33 34  1  0
 34 35  2  0
 35 36  1  0
 36 37  2  0
 37 38  1  0
 38 39  2  0
 31 40  2  0
  7 41  1  0
 41 42  1  1
 42 43  1  0
 43 44  2  0
 43 45  1  0
 45 46  1  0
 46 47  2  0
 47 48  1  0
 48 49  1  0
 49 50  1  0
 50 51  2  0
 51 52  1  0
 52 53  2  0
 53 54  1  0
 54 55  2  0
 47 56  1  0
 56 57  1  0
 57 58  1  0
 58 59  1  0
 59 60  2  0
 60 61  1  0
 61 62  2  0
 62 63  1  0
 63 64  2  0
 56 65  2  0
 65 66  1  0
 66 67  1  0
 67 68  1  0
 68 69  2  0
 69 70  1  0
 70 71  2  0
 71 72  1  0
 72 73  2  0
 65 74  1  0
 74 75  1  0
 75 76  2  0
 76 77  1  0
 77 78  2  0
 78 79  1  0
 79 80  1  0
 80 81  1  0
 81 82  2  0
 82 83  1  0
 83 84  2  0
 84 85  1  0
 85 86  2  0
 78 87  1  0
 87 88  1  0
 88 89  1  0
 89 90  1  0
 90 91  2  0
 91 92  1  0
 92 93  2  0
 93 94  1  0
 94 95  2  0
 87 96  2  0
 96 97  1  0
 97 98  1  0
 98 99  1  0
 99100  2  0
100101  1  0
101102  2  0
102103  1  0
103104  2  0
 76105  1  0
105106  2  0
105107  1  0
108107  1  6
108109  1  0
109110  1  1
110111  1  0
111112  2  0
111113  1  0
113114  2  0
114115  1  0
115116  1  0
115117  2  0
117118  1  0
118119  1  0
119120  1  0
120121  2  0
121122  1  0
122123  2  0
123124  1  0
124125  2  0
117126  1  0
126127  1  0
126128  2  0
  2129  1  0
129130  2  0
130131  1  0
131132  1  0
131133  2  0
133134  1  0
134135  1  0
135136  2  0
136137  1  0
137138  2  0
137139  1  0
139140  1  0
140141  1  0
141142  2  0
142143  1  0
143144  2  0
144145  1  0
145146  2  0
136147  1  0
147148  2  0
148149  1  0
149150  1  0
150151  1  0
151152  2  0
152153  1  0
153154  2  0
154155  1  0
155156  2  0
148157  1  0
157158  1  0
158159  1  0
159160  1  0
160161  2  0
161162  1  0
162163  2  0
163164  1  0
164165  2  0
157166  2  0
166167  1  0
167168  1  0
168169  1  0
169170  2  0
170171  1  0
171172  2  0
172173  1  0
173174  2  0
133175  1  0
175176  1  0
175177  2  0
109  5  1  0
128113  1  0
177129  1  0
 40 11  1  0
108 41  1  0
125120  1  0
166135  1  0
174169  1  0
 21 16  1  0
 30 25  1  0
 39 34  1  0
 74 45  2  0
 96 75  1  0
104 99  1  0
146141  1  0
156151  1  0
165160  1  0
 55 50  1  0
 64 59  1  0
 73 68  1  0
 86 81  1  0
 95 90  1  0
M  END
$$$$
35
     RDKit          2D

136150  0  0  0  0  0  0  0  0999 V2000
   12.7500   -6.4952    0.0000 C   0  0  0  0  0  0  0  0  0  0  0  0
   12.0000   -5.1962    0.0000 O   0  0  0  0  0  0  0  0  0  0  0  0
   10.5000   -5.1962    0.0000 C   0  0  0  0  0  0  0  0  0  0  0  0
    9.7500   -3.8971    0.0000 O   0  0  0  0  0  0  0  0  0  0  0  0
    8.2500   -3.8971    0.0000 C   0  0  0  0  0  0  0  0  0  0  0  0
    7.5000   -5.1962    0.0000 C   0  0  0  0  0  0  0  0  0  0  0  0
    8.2500   -6.4952    0.0000 O   0  0  0  0  0  0  0  0  0  0  0  0
    7.5000   -7.7942    0.0000 Si  0  0  0  0  0  4  0  0  0  0  0  0
    8.7990   -8.5442    0.0000 C   0  0  0  0  0  0  0  0  0  0  0  0
    6.2010   -7.0442    0.0000 C   0  0  0  0  0  0  0  0  0  0  0  0
    6.7500   -9.0933    0.0000 C   0  0  0  0  0  0  0  0  0  0  0  0
    5.4510   -8.3433    0.0000 C   0  0  0  0  0  0  0  0  0  0  0  0
    8.0490   -9.8433    0.0000 C   0  0  0  0  0  0  0  0  0  0  0  0
    6.0000  -10.3923    0.0000 C   0  0  0  0  0  0  0  0  0  0  0  0
    6.0000   -5.1962    0.0000 C   0  0  0  0  0  0  0  0  0  0  0  0
    5.2500   -3.8971    0.0000 C   0  0  0  0  0  0  0  0  0  0  0  0
    3.7500   -3.8971    0.0000 C   0  0  0  0  0  0  0  0  0  0  0  0
    3.0000   -5.1962    0.0000 O   0  0  0  0  0  0  0  0  0  0  0  0
    3.0000   -2.5981    0.0000 O   0  0  0  0  0  0  0  0  0  0  0  0
    1.5000   -2.5981    0.0000 C   0  0  0  0  0  0  0  0  0  0  0  0
    0.7500   -1.2990    0.0000 C   0  0  0  0  0  0  0  0  0  0  0  0
    1.5000    0.0000    0.0000 O   0  0  0  0  0  0  0  0  0  0  0  0
    0.7500    1.2990    0.0000 C   0  0  0  0  0  0  0  0  0  0  0  0
    1.5000    2.5981    0.0000 O   0  0  0  0  0  0  0  0  0  0  0  0
    3.0000    2.5981    0.0000 C   0  0  0  0  0  0  0  0  0  0  0  0
    3.7500    1.2990    0.0000 O   0  0  0  0  0  0  0  0  0  0  0  0
    3.7500    3.8971    0.0000 C   0  0  0  0  0  0  0  0  0  0  0  0
    5.2500    3.8971    0.0000 C   0  0  0  0  0  0  0  0  0  0  0  0
    6.0000    5.1962    0.0000 C   0  0  0  0  0  0  0  0  0  0  0  0
    7.5000    5.1962    0.0000 O   0  0  0  0  0  0  0  0  0  0  0  0
    8.2500    3.8971    0.0000 C   0  0  0  0  0  0  0  0  0  0  0  0
    9.7500    3.8971    0.0000 C   0  0  0  0  0  0  0  0  0  0  0  0
   10.5000    2.5981    0.0000 C   0  0  0  0  0  0  0  0  0  0  0  0
   12.0000    2.5981    0.0000 C   0  0  0  0  0  0  0  0  0  0  0  0
   12.7500    3.8971    0.0000 C   0  0  0  0  0  0  0  0  0  0  0  0
   12.0000    5.1962    0.0000 C   0  0  0  0  0  0  0  0  0  0  0  0
   10.5000    5.1962    0.0000 C   0  0  0  0  0  0  0  0  0  0  0  0
    5.2500    6.4952    0.0000 C   0  0  0  0  0  0  0  0  0  0  0  0
    6.0000    7.7942    0.0000 O   0  0  0  0  0  0  0  0  0  0  0  0
    5.2500    9.0933    0.0000 C   0  0  0  0  0  0  0  0  0  0  0  0
    6.0000   10.3923    0.0000 C   0  0  0  0  0  0  0  0  0  0  0  0
    7.5000   10.3923    0.0000 C   0  0  0  0  0  0  0  0  0  0  0  0
    8.2500   11.6913    0.0000 C   0  0  0  0  0  0  0  0  0  0  0  0
    7.5000   12.9904    0.0000 C   0  0  0  0  0  0  0  0  0  0  0  0
    6.0000   12.9904    0.0000 C   0  0  0  0  0  0  0  0  0  0  0  0
    5.2500   11.6913    0.0000 C   0  0  0  0  0  0  0  0  0  0  0  0
    3.7500    6.4952    0.0000 C   0  0  0  0  0  0  0  0  0  0  0  0
    3.0000    7.7942    0.0000 O   0  0  0  0  0  0  0  0  0  0  0  0
    1.5000    7.7942    0.0000 C   0  0  0  0  0  0  0  0  0  0  0  0
    0.7500    9.0933    0.0000 C   0  0  0  0  0  0  0  0  0  0  0  0
    1.5000   10.3923    0.0000 C   0  0  0  0  0  0  0  0  0  0  0  0
    0.7500   11.6913    0.0000 C   0  0  0  0  0  0  0  0  0  0  0  0
   -0.7500   11.6913    0.0000 C   0  0  0  0  0  0  0  0  0  0  0  0
   -1.5000   10.3923    0.0000 C   0  0  0  0  0  0  0  0  0  0  0  0
   -0.7500    9.0933    0.0000 C   0  0  0  0  0  0  0  0  0  0  0  0
    3.0000    5.1962    0.0000 C   0  0  0  0  0  0  0  0  0  0  0  0
   -0.7500    1.2990    0.0000 C   0  0  0  0  0  0  0  0  0  0  0  0
   -0.9068    2.7908    0.0000 O   0  0  0  0  0  0  0  0  0  0  0  0
   -1.9105    3.9055    0.0000 C   0  0  0  0  0  0  0  0  0  0  0  0
   -1.1605    5.2046    0.0000 O   0  0  0  0  0  0  0  0  0  0  0  0
   -3.3777    4.2174    0.0000 C   0  0  0  0  0  0  0  0  0  0  0  0
   -3.2209    5.7092    0.0000 C   0  0  0  0  0  0  0  0  0  0  0  0
   -4.4344    6.5909    0.0000 C   0  0  0  0  0  0  0  0  0  0  0  0
   -4.2777    8.0826    0.0000 O   0  0  0  0  0  0  0  0  0  0  0  0
   -5.4912    8.9643    0.0000 C   0  0  0  0  0  0  0  0  0  0  0  0
   -5.3344   10.4561    0.0000 C   0  0  0  0  0  0  0  0  0  0  0  0
   -3.9641   11.0662    0.0000 C   0  0  0  0  0  0  0  0  0  0  0  0
   -3.8073   12.5580    0.0000 C   0  0  0  0  0  0  0  0  0  0  0  0
   -5.0208   13.4397    0.0000 C   0  0  0  0  0  0  0  0  0  0  0  0
   -6.3911   12.8296    0.0000 C   0  0  0  0  0  0  0  0  0  0  0  0
   -6.5479   11.3378    0.0000 C   0  0  0  0  0  0  0  0  0  0  0  0
   -5.8048    5.9808    0.0000 C   0  0  0  0  0  0  0  0  0  0  0  0
   -7.0183    6.8624    0.0000 O   0  0  0  0  0  0  0  0  0  0  0  0
   -6.8615    8.3542    0.0000 C   0  0  0  0  0  0  0  0  0  0  0  0
   -8.0750    9.2359    0.0000 C   0  0  0  0  0  0  0  0  0  0  0  0
   -7.9182   10.7277    0.0000 C   0  0  0  0  0  0  0  0  0  0  0  0
   -9.1318   11.6094    0.0000 C   0  0  0  0  0  0  0  0  0  0  0  0
  -10.5021   10.9993    0.0000 C   0  0  0  0  0  0  0  0  0  0  0  0
  -10.6589    9.5075    0.0000 C   0  0  0  0  0  0  0  0  0  0  0  0
   -9.4453    8.6258    0.0000 C   0  0  0  0  0  0  0  0  0  0  0  0
   -5.9616    4.4890    0.0000 C   0  0  0  0  0  0  0  0  0  0  0  0
   -7.3319    3.8789    0.0000 O   0  0  0  0  0  0  0  0  0  0  0  0
   -8.5454    4.7606    0.0000 C   0  0  0  0  0  0  0  0  0  0  0  0
   -9.9157    4.1504    0.0000 C   0  0  0  0  0  0  0  0  0  0  0  0
  -11.1292    5.0321    0.0000 C   0  0  0  0  0  0  0  0  0  0  0  0
  -12.4996    4.4220    0.0000 C   0  0  0  0  0  0  0  0  0  0  0  0
  -12.6564    2.9302    0.0000 C   0  0  0  0  0  0  0  0  0  0  0  0
  -11.4428    2.0486    0.0000 C   0  0  0  0  0  0  0  0  0  0  0  0
  -10.0725    2.6587    0.0000 C   0  0  0  0  0  0  0  0  0  0  0  0
   -4.7480    3.6073    0.0000 C   0  0  0  0  0  0  0  0  0  0  0  0
   -5.4980    2.3083    0.0000 C   0  0  0  0  0  0  0  0  0  0  0  0
   -5.3412    0.8165    0.0000 C   0  0  0  0  0  0  0  0  0  0  0  0
   -6.5548   -0.0652    0.0000 C   0  0  0  0  0  0  0  0  0  0  0  0
   -7.9251    0.5449    0.0000 C   0  0  0  0  0  0  0  0  0  0  0  0
   -9.1386   -0.3368    0.0000 O   0  0  0  0  0  0  0  0  0  0  0  0
  -10.5089    0.2733    0.0000 C   0  0  0  0  0  0  0  0  0  0  0  0
  -11.7224   -0.6083    0.0000 C   0  0  0  0  0  0  0  0  0  0  0  0
  -13.0928    0.0018    0.0000 C   0  0  0  0  0  0  0  0  0  0  0  0
  -14.3063   -0.8799    0.0000 C   0  0  0  0  0  0  0  0  0  0  0  0
  -14.1495   -2.3717    0.0000 C   0  0  0  0  0  0  0  0  0  0  0  0
  -12.7792   -2.9818    0.0000 C   0  0  0  0  0  0  0  0  0  0  0  0
  -11.5657   -2.1001    0.0000 C   0  0  0  0  0  0  0  0  0  0  0  0
   -8.0819    2.0367    0.0000 C   0  0  0  0  0  0  0  0  0  0  0  0
   -9.4522    2.6468    0.0000 O   0  0  0  0  0  0  0  0  0  0  0  0
  -10.6657    1.7651    0.0000 C   0  0  0  0  0  0  0  0  0  0  0  0
  -12.0360    2.3752    0.0000 C   0  0  0  0  0  0  0  0  0  0  0  0
  -12.1928    3.8670    0.0000 C   0  0  0  0  0  0  0  0  0  0  0  0
  -13.5631    4.4771    0.0000 C   0  0  0  0  0  0  0  0  0  0  0  0
  -14.7767    3.5954    0.0000 C   0  0  0  0  0  0  0  0  0  0  0  0
  -14.6199    2.1036    0.0000 C   0  0  0  0  0  0  0  0  0  0  0  0
  -13.2496    1.4935    0.0000 C   0  0  0  0  0  0  0  0  0  0  0  0
   -6.8683    2.9184    0.0000 C   0  0  0  0  0  0  0  0  0  0  0  0
   -7.0251    4.4102    0.0000 O   0  0  0  0  0  0  0  0  0  0  0  0
   -8.3955    5.0203    0.0000 C   0  0  0  0  0  0  0  0  0  0  0  0
   -8.5522    6.5120    0.0000 C   0  0  0  0  0  0  0  0  0  0  0  0
   -7.3387    7.3937    0.0000 C   0  0  0  0  0  0  0  0  0  0  0  0
   -7.4955    8.8855    0.0000 C   0  0  0  0  0  0  0  0  0  0  0  0
   -8.8658    9.4956    0.0000 C   0  0  0  0  0  0  0  0  0  0  0  0
  -10.0794    8.6139    0.0000 C   0  0  0  0  0  0  0  0  0  0  0  0
   -9.9226    7.1221    0.0000 C   0  0  0  0  0  0  0  0  0  0  0  0
   -4.3375   -0.2982    0.0000 C   0  0  0  0  0  0  0  0  0  0  0  0
   -5.0875   -1.5973    0.0000 O   0  0  0  0  0  0  0  0  0  0  0  0
   -2.8703   -0.6101    0.0000 O   0  0  0  0  0  0  0  0  0  0  0  0
   -1.5000    0.0000    0.0000 C   0  0  0  0  0  0  0  0  0  0  0  0
   -0.7500   -1.2990    0.0000 C   0  0  0  0  0  0  0  0  0  0  0  0
   -1.5000   -2.5981    0.0000 O   0  0  0  0  0  0  0  0  0  0  0  0
    6.0000   -2.5981    0.0000 C   0  0  0  0  0  0  0  0  0  0  0  0
    7.5000   -2.5981    0.0000 C   0  0  0  0  0  0  0  0  0  0  0  0
    8.2500   -1.2990    0.0000 O   0  0  0  0  0  0  0  0  0  0  0  0
    7.5000   -0.0000    0.0000 Si  0  0  0  0  0  4  0  0  0  0  0  0
    8.7990    0.7500    0.0000 C   0  0  0  0  0  0  0  0  0  0  0  0
    6.2010   -0.7500    0.0000 C   0  0  0  0  0  0  0  0  0  0  0  0
    6.7500    1.2990    0.0000 C   0  0  0  0  0  0  0  0  0  0  0  0
    5.4510    0.5490    0.0000 C   0  0  0  0  0  0  0  0  0  0  0  0
    8.0490    2.0490    0.0000 C   0  0  0  0  0  0  0  0  0  0  0  0
    6.0000    2.5981    0.0000 C   0  0  0  0  0  0  0  0  0  0  0  0
  1  2  1  0
  2  3  1  0
  3  4  1  0
  4  5  1  0
  5  6  2  0
  6  7  1  0
  7  8  1  0
  8  9  1  0
  8 10  1  0
  8 11  1  0
 11 12  1  0
 11 13  1  0
 11 14  1  0
  6 15  1  0
 15 16  2  0
 16 17  1  0
 17 18  2  0
 17 19  1  0
 19 20  1  0
 21 20  1  6
 21 22  1  0
 22 23  1  0
 23 24  1  6
 24 25  1  0
 25 26  2  0
 25 27  1  0
 27 28  2  0
 28 29  1  0
 29 30  1  0
 30 31  1  0
 31 32  1  0
 32 33  2  0
 33 34  1  0
 34 35  2  0
 35 36  1  0
 36 37  2  0
 29 38  2  0
 38 39  1  0
 39 40  1  0
 40 41  1  0
 41 42  2  0
 42 43  1  0
 43 44  2  0
 44 45  1  0
 45 46  2  0
 38 47  1  0
 47 48  1  0
 48 49  1  0
 49 50  1  0
 50 51  2  0
 51 52  1  0
 52 53  2  0
 53 54  1  0
 54 55  2  0
 47 56  2  0
 23 57  1  0
 57 58  1  1
 58 59  1  0
 59 60  2  0
 59 61  1  0
 61 62  1  0
 62 63  2  0
 63 64  1  0
 64 65  1  0
 65 66  1  0
 66 67  2  0
 67 68  1  0
 68 69  2  0
 69 70  1  0
 70 71  2  0
 63 72  1  0
 72 73  1  0
 73 74  1  0
 74 75  1  0
 75 76  2  0
 76 77  1  0
 77 78  2  0
 78 79  1  0
 79 80  2  0
 72 81  2  0
 81 82  1  0
 82 83  1  0
 83 84  1  0
 84 85  2  0
 85 86  1  0
 86 87  2  0
 87 88  1  0
 88 89  2  0
 81 90  1  0
 90 91  1  0
 91 92  2  0
 92 93  1  0
 93 94  2  0
 94 95  1  0
 95 96  1  0
 96 97  1  0
 97 98  2  0
 98 99  1  0
 99100  2  0
100101  1  0
101102  2  0
 94103  1  0
103104  1  0
104105  1  0
105106  1  0
106107  2  0
107108  1  0
108109  2  0
109110  1  0
110111  2  0
103112  2  0
112113  1  0
113114  1  0
114115  1  0
115116  2  0
116117  1  0
117118  2  0
118119  1  0
119120  2  0
 92121  1  0
121122  2  0
121123  1  0
124123  1  6
124125  1  0
125126  1  1
 16127  1  0
127128  2  0
128129  1  0
129130  1  0
130131  1  0
130132  1  0
130133  1  0
133134  1  0
133135  1  0
133136  1  0
128  5  1  0
125 21  1  0
 56 27  1  0
124 57  1  0
 37 32  1  0
 46 41  1  0
 55 50  1  0
 90 61  2  0
112 91  1  0
120115  1  0
 71 66  1  0
 80 75  1  0
 89 84  1  0
102 97  1  0
111106  1  0
M  END
$$$$
36
     RDKit          2D

168184  0  0  0  0  0  0  0  0999 V2000
   -0.7500  -14.2894    0.0000 C   0  0  0  0  0  0  0  0  0  0  0  0
   -1.5000  -12.9904    0.0000 O   0  0  0  0  0  0  0  0  0  0  0  0
   -0.7500  -11.6913    0.0000 C   0  0  0  0  0  0  0  0  0  0  0  0
   -1.5000  -10.3923    0.0000 O   0  0  0  0  0  0  0  0  0  0  0  0
   -0.7500   -9.0933    0.0000 C   0  0  0  0  0  0  0  0  0  0  0  0
   -1.5000   -7.7942    0.0000 C   0  0  0  0  0  0  0  0  0  0  0  0
   -3.0000   -7.7942    0.0000 O   0  0  0  0  0  0  0  0  0  0  0  0
   -3.7500   -9.0933    0.0000 Si  0  0  0  0  0  4  0  0  0  0  0  0
   -5.0490   -8.3433    0.0000 C   0  0  0  0  0  0  0  0  0  0  0  0
   -2.5521   -9.9960    0.0000 C   0  0  0  0  0  0  0  0  0  0  0  0
   -4.5000  -10.3923    0.0000 C   0  0  0  0  0  0  0  0  0  0  0  0
   -5.7990   -9.6423    0.0000 C   0  0  0  0  0  0  0  0  0  0  0  0
   -3.1192  -10.9784    0.0000 C   0  0  0  0  0  0  0  0  0  0  0  0
   -4.9134  -11.8342    0.0000 C   0  0  0  0  0  0  0  0  0  0  0  0
   -0.7500   -6.4952    0.0000 C   0  0  0  0  0  0  0  0  0  0  0  0
    0.7500   -6.4952    0.0000 C   0  0  0  0  0  0  0  0  0  0  0  0
    1.5000   -5.1962    0.0000 C   0  0  0  0  0  0  0  0  0  0  0  0
    3.0000   -5.1962    0.0000 O   0  0  0  0  0  0  0  0  0  0  0  0
    0.7500   -3.8971    0.0000 O   0  0  0  0  0  0  0  0  0  0  0  0
    1.5000   -2.5981    0.0000 C   0  0  0  0  0  0  0  0  0  0  0  0
    0.7500   -1.2990    0.0000 C   0  0  0  0  0  0  0  0  0  0  0  0
    1.5000    0.0000    0.0000 O   0  0  0  0  0  0  0  0  0  0  0  0
    0.7500    1.2990    0.0000 C   0  0  0  0  0  0  0  0  0  0  0  0
    1.5000    2.5981    0.0000 O   0  0  0  0  0  0  0  0  0  0  0  0
    3.0000    2.5981    0.0000 C   0  0  0  0  0  0  0  0  0  0  0  0
    3.7500    1.2990    0.0000 O   0  0  0  0  0  0  0  0  0  0  0  0
    3.7500    3.8971    0.0000 C   0  0  0  0  0  0  0  0  0  0  0  0
    5.2500    3.8971    0.0000 C   0  0  0  0  0  0  0  0  0  0  0  0
    6.0000    5.1962    0.0000 C   0  0  0  0  0  0  0  0  0  0  0  0
    7.5000    5.1962    0.0000 O   0  0  0  0  0  0  0  0  0  0  0  0
    8.2500    3.8971    0.0000 C   0  0  0  0  0  0  0  0  0  0  0  0
    9.7500    3.8971    0.0000 C   0  0  0  0  0  0  0  0  0  0  0  0
   10.5000    2.5981    0.0000 C   0  0  0  0  0  0  0  0  0  0  0  0
   12.0000    2.5981    0.0000 C   0  0  0  0  0  0  0  0  0  0  0  0
   12.7500    3.8971    0.0000 C   0  0  0  0  0  0  0  0  0  0  0  0
   12.0000    5.1962    0.0000 C   0  0  0  0  0  0  0  0  0  0  0  0
   10.5000    5.1962    0.0000 C   0  0  0  0  0  0  0  0  0  0  0  0
    5.2500    6.4952    0.0000 C   0  0  0  0  0  0  0  0  0  0  0  0
    6.0000    7.7942    0.0000 O   0  0  0  0  0  0  0  0  0  0  0  0
    5.2500    9.0933    0.0000 C   0  0  0  0  0  0  0  0  0  0  0  0
    6.0000   10.3923    0.0000 C   0  0  0  0  0  0  0  0  0  0  0  0
    7.5000   10.3923    0.0000 C   0  0  0  0  0  0  0  0  0  0  0  0
    8.2500   11.6913    0.0000 C   0  0  0  0  0  0  0  0  0  0  0  0
    7.5000   12.9904    0.0000 C   0  0  0  0  0  0  0  0  0  0  0  0
    6.0000   12.9904    0.0000 C   0  0  0  0  0  0  0  0  0  0  0  0
    5.2500   11.6913    0.0000 C   0  0  0  0  0  0  0  0  0  0  0  0
    3.7500    6.4952    0.0000 C   0  0  0  0  0  0  0  0  0  0  0  0
    3.0000    7.7942    0.0000 O   0  0  0  0  0  0  0  0  0  0  0  0
    1.5000    7.7942    0.0000 C   0  0  0  0  0  0  0  0  0  0  0  0
    0.7500    9.0933    0.0000 C   0  0  0  0  0  0  0  0  0  0  0  0
    1.5000   10.3923    0.0000 C   0  0  0  0  0  0  0  0  0  0  0  0
    0.7500   11.6913    0.0000 C   0  0  0  0  0  0  0  0  0  0  0  0
   -0.7500   11.6913    0.0000 C   0  0  0  0  0  0  0  0  0  0  0  0
   -1.5000   10.3923    0.0000 C   0  0  0  0  0  0  0  0  0  0  0  0
   -0.7500    9.0933    0.0000 C   0  0  0  0  0  0  0  0  0  0  0  0
    3.0000    5.1962    0.0000 C   0  0  0  0  0  0  0  0  0  0  0  0
   -0.7500    1.2990    0.0000 C   0  0  0  0  0  0  0  0  0  0  0  0
   -0.9068    2.7908    0.0000 O   0  0  0  0  0  0  0  0  0  0  0  0
   -1.9105    3.9055    0.0000 C   0  0  0  0  0  0  0  0  0  0  0  0
   -1.1605    5.2046    0.0000 O   0  0  0  0  0  0  0  0  0  0  0  0
   -3.3777    4.2174    0.0000 C   0  0  0  0  0  0  0  0  0  0  0  0
   -3.2209    5.7092    0.0000 C   0  0  0  0  0  0  0  0  0  0  0  0
   -4.4344    6.5909    0.0000 C   0  0  0  0  0  0  0  0  0  0  0  0
   -4.2777    8.0826    0.0000 O   0  0  0  0  0  0  0  0  0  0  0  0
   -5.4912    8.9643    0.0000 C   0  0  0  0  0  0  0  0  0  0  0  0
   -5.3344   10.4561    0.0000 C   0  0  0  0  0  0  0  0  0  0  0  0
   -6.5479   11.3378    0.0000 C   0  0  0  0  0  0  0  0  0  0  0  0
   -6.3911   12.8296    0.0000 C   0  0  0  0  0  0  0  0  0  0  0  0
   -5.0208   13.4397    0.0000 C   0  0  0  0  0  0  0  0  0  0  0  0
   -3.8073   12.5580    0.0000 C   0  0  0  0  0  0  0  0  0  0  0  0
   -3.9641   11.0662    0.0000 C   0  0  0  0  0  0  0  0  0  0  0  0
   -5.8048    5.9808    0.0000 C   0  0  0  0  0  0  0  0  0  0  0  0
   -7.0183    6.8624    0.0000 O   0  0  0  0  0  0  0  0  0  0  0  0
   -6.8615    8.3542    0.0000 C   0  0  0  0  0  0  0  0  0  0  0  0
   -8.0750    9.2359    0.0000 C   0  0  0  0  0  0  0  0  0  0  0  0
   -7.9182   10.7277    0.0000 C   0  0  0  0  0  0  0  0  0  0  0  0
   -9.1318   11.6094    0.0000 C   0  0  0  0  0  0  0  0  0  0  0  0
  -10.5021   10.9993    0.0000 C   0  0  0  0  0  0  0  0  0  0  0  0
  -10.6589    9.5075    0.0000 C   0  0  0  0  0  0  0  0  0  0  0  0
   -9.4453    8.6258    0.0000 C   0  0  0  0  0  0  0  0  0  0  0  0
   -5.9616    4.4890    0.0000 C   0  0  0  0  0  0  0  0  0  0  0  0
   -7.3319    3.8789    0.0000 O   0  0  0  0  0  0  0  0  0  0  0  0
   -8.5454    4.7606    0.0000 C   0  0  0  0  0  0  0  0  0  0  0  0
   -9.9157    4.1504    0.0000 C   0  0  0  0  0  0  0  0  0  0  0  0
  -11.1292    5.0321    0.0000 C   0  0  0  0  0  0  0  0  0  0  0  0
  -12.4996    4.4220    0.0000 C   0  0  0  0  0  0  0  0  0  0  0  0
  -12.6564    2.9302    0.0000 C   0  0  0  0  0  0  0  0  0  0  0  0
  -11.4428    2.0486    0.0000 C   0  0  0  0  0  0  0  0  0  0  0  0
  -10.0725    2.6587    0.0000 C   0  0  0  0  0  0  0  0  0  0  0  0
   -4.7480    3.6073    0.0000 C   0  0  0  0  0  0  0  0  0  0  0  0
   -5.4980    2.3083    0.0000 C   0  0  0  0  0  0  0  0  0  0  0  0
   -5.3412    0.8165    0.0000 C   0  0  0  0  0  0  0  0  0  0  0  0
   -6.5548   -0.0652    0.0000 C   0  0  0  0  0  0  0  0  0  0  0  0
   -7.9251    0.5449    0.0000 C   0  0  0  0  0  0  0  0  0  0  0  0
   -9.1386   -0.3368    0.0000 O   0  0  0  0  0  0  0  0  0  0  0  0
  -10.5089    0.2733    0.0000 C   0  0  0  0  0  0  0  0  0  0  0  0
  -11.7224   -0.6083    0.0000 C   0  0  0  0  0  0  0  0  0  0  0  0
  -13.0928    0.0018    0.0000 C   0  0  0  0  0  0  0  0  0  0  0  0
  -14.3063   -0.8799    0.0000 C   0  0  0  0  0  0  0  0  0  0  0  0
  -14.1495   -2.3717    0.0000 C   0  0  0  0  0  0  0  0  0  0  0  0
  -12.7792   -2.9818    0.0000 C   0  0  0  0  0  0  0  0  0  0  0  0
  -11.5657   -2.1001    0.0000 C   0  0  0  0  0  0  0  0  0  0  0  0
   -8.0819    2.0367    0.0000 C   0  0  0  0  0  0  0  0  0  0  0  0
   -9.4522    2.6468    0.0000 O   0  0  0  0  0  0  0  0  0  0  0  0
  -10.6657    1.7651    0.0000 C   0  0  0  0  0  0  0  0  0  0  0  0
  -12.0360    2.3752    0.0000 C   0  0  0  0  0  0  0  0  0  0  0  0
  -12.1928    3.8670    0.0000 C   0  0  0  0  0  0  0  0  0  0  0  0
  -13.5631    4.4771    0.0000 C   0  0  0  0  0  0  0  0  0  0  0  0
  -14.7767    3.5954    0.0000 C   0  0  0  0  0  0  0  0  0  0  0  0
  -14.6199    2.1036    0.0000 C   0  0  0  0  0  0  0  0  0  0  0  0
  -13.2496    1.4935    0.0000 C   0  0  0  0  0  0  0  0  0  0  0  0
   -6.8683    2.9184    0.0000 C   0  0  0  0  0  0  0  0  0  0  0  0
   -7.0251    4.4102    0.0000 O   0  0  0  0  0  0  0  0  0  0  0  0
   -8.3955    5.0203    0.0000 C   0  0  0  0  0  0  0  0  0  0  0  0
   -8.5522    6.5120    0.0000 C   0  0  0  0  0  0  0  0  0  0  0  0
   -7.3387    7.3937    0.0000 C   0  0  0  0  0  0  0  0  0  0  0  0
   -7.4955    8.8855    0.0000 C   0  0  0  0  0  0  0  0  0  0  0  0
   -8.8658    9.4956    0.0000 C   0  0  0  0  0  0  0  0  0  0  0  0
  -10.0794    8.6139    0.0000 C   0  0  0  0  0  0  0  0  0  0  0  0
   -9.9226    7.1221    0.0000 C   0  0  0  0  0  0  0  0  0  0  0  0
   -4.3375   -0.2982    0.0000 C   0  0  0  0  0  0  0  0  0  0  0  0
   -5.0875   -1.5973    0.0000 O   0  0  0  0  0  0  0  0  0  0  0  0
   -2.8703   -0.6101    0.0000 O   0  0  0  0  0  0  0  0  0  0  0  0
   -1.5000    0.0000    0.0000 C   0  0  0  0  0  0  0  0  0  0  0  0
   -0.7500   -1.2990    0.0000 C   0  0  0  0  0  0  0  0  0  0  0  0
   -1.5000   -2.5981    0.0000 O   0  0  0  0  0  0  0  0  0  0  0  0
   -0.7500   -3.8971    0.0000 C   0  0  0  0  0  0  0  0  0  0  0  0
    0.7054   -4.2601    0.0000 O   0  0  0  0  0  0  0  0  0  0  0  0
   -1.5000   -5.1962    0.0000 C   0  0  0  0  0  0  0  0  0  0  0  0
   -3.0000   -5.1962    0.0000 C   0  0  0  0  0  0  0  0  0  0  0  0
   -3.7500   -6.4952    0.0000 C   0  0  0  0  0  0  0  0  0  0  0  0
   -5.2500   -6.4952    0.0000 O   0  0  0  0  0  0  0  0  0  0  0  0
   -6.0000   -5.1962    0.0000 Si  0  0  0  0  0  4  0  0  0  0  0  0
   -7.2990   -5.9462    0.0000 C   0  0  0  0  0  0  0  0  0  0  0  0
   -4.7010   -4.4462    0.0000 C   0  0  0  0  0  0  0  0  0  0  0  0
   -6.7500   -3.8971    0.0000 C   0  0  0  0  0  0  0  0  0  0  0  0
   -5.4510   -3.1471    0.0000 C   0  0  0  0  0  0  0  0  0  0  0  0
   -8.0490   -4.6471    0.0000 C   0  0  0  0  0  0  0  0  0  0  0  0
   -7.5000   -2.5981    0.0000 C   0  0  0  0  0  0  0  0  0  0  0  0
   -3.0000   -7.7942    0.0000 C   0  0  0  0  0  0  0  0  0  0  0  0
   -3.7500   -9.0933    0.0000 O   0  0  0  0  0  0  0  0  0  0  0  0
   -5.2500   -9.0933    0.0000 C   0  0  0  0  0  0  0  0  0  0  0  0
   -6.0000  -10.3923    0.0000 C   0  0  0  0  0  0  0  0  0  0  0  0
   -7.5000  -10.3923    0.0000 C   0  0  0  0  0  0  0  0  0  0  0  0
   -8.2500  -11.6913    0.0000 C   0  0  0  0  0  0  0  0  0  0  0  0
   -7.5000  -12.9904    0.0000 C   0  0  0  0  0  0  0  0  0  0  0  0
   -6.0000  -12.9904    0.0000 C   0  0  0  0  0  0  0  0  0  0  0  0
   -5.2500  -11.6913    0.0000 C   0  0  0  0  0  0  0  0  0  0  0  0
   -1.5000   -7.7942    0.0000 C   0  0  0  0  0  0  0  0  0  0  0  0
   -0.7500   -9.0933    0.0000 O   0  0  0  0  0  0  0  0  0  0  0  0
   -1.5000  -10.3923    0.0000 Si  0  0  0  0  0  4  0  0  0  0  0  0
   -0.2010  -11.1423    0.0000 C   0  0  0  0  0  0  0  0  0  0  0  0
   -2.8808   -9.8062    0.0000 C   0  0  0  0  0  0  0  0  0  0  0  0
   -2.2500  -11.6913    0.0000 C   0  0  0  0  0  0  0  0  0  0  0  0
   -1.1710  -12.7334    0.0000 C   0  0  0  0  0  0  0  0  0  0  0  0
   -3.4479  -10.7886    0.0000 C   0  0  0  0  0  0  0  0  0  0  0  0
   -3.0000  -12.9904    0.0000 C   0  0  0  0  0  0  0  0  0  0  0  0
   -0.7500   -6.4952    0.0000 C   0  0  0  0  0  0  0  0  0  0  0  0
    1.5000   -7.7942    0.0000 C   0  0  0  0  0  0  0  0  0  0  0  0
    0.7500   -9.0933    0.0000 C   0  0  0  0  0  0  0  0  0  0  0  0
    1.5000  -10.3923    0.0000 O   0  0  0  0  0  0  0  0  0  0  0  0
    3.0000  -10.3923    0.0000 Si  0  0  0  0  0  4  0  0  0  0  0  0
    3.0000  -11.8923    0.0000 C   0  0  0  0  0  0  0  0  0  0  0  0
    3.0000   -8.8923    0.0000 C   0  0  0  0  0  0  0  0  0  0  0  0
    4.5000  -10.3923    0.0000 C   0  0  0  0  0  0  0  0  0  0  0  0
    4.5000   -8.8923    0.0000 C   0  0  0  0  0  0  0  0  0  0  0  0
    4.5000  -11.8923    0.0000 C   0  0  0  0  0  0  0  0  0  0  0  0
    6.0000  -10.3923    0.0000 C   0  0  0  0  0  0  0  0  0  0  0  0
  1  2  1  0
  2  3  1  0
  3  4  1  0
  4  5  1  0
  5  6  2  0
  6  7  1  0
  7  8  1  0
  8  9  1  0
  8 10  1  0
  8 11  1  0
 11 12  1  0
 11 13  1  0
 11 14  1  0
  6 15  1  0
 15 16  2  0
 16 17  1  0
 17 18  2  0
 17 19  1  0
 19 20  1  0
 21 20  1  6
 21 22  1  0
 22 23  1  0
 23 24  1  6
 24 25  1  0
 25 26  2  0
 25 27  1  0
 27 28  2  0
 28 29  1  0
 29 30  1  0
 30 31  1  0
 31 32  1  0
 32 33  2  0
 33 34  1  0
 34 35  2  0
 35 36  1  0
 36 37  2  0
 29 38  2  0
 38 39  1  0
 39 40  1  0
 40 41  1  0
 41 42  2  0
 42 43  1  0
 43 44  2  0
 44 45  1  0
 45 46  2  0
 38 47  1  0
 47 48  1  0
 48 49  1  0
 49 50  1  0
 50 51  2  0
 51 52  1  0
 52 53  2  0
 53 54  1  0
 54 55  2  0
 47 56  2  0
 23 57  1  0
 57 58  1  1
 58 59  1  0
 59 60  2  0
 59 61  1  0
 61 62  1  0
 62 63  2  0
 63 64  1  0
 64 65  1  0
 65 66  1  0
 66 67  2  0
 67 68  1  0
 68 69  2  0
 69 70  1  0
 70 71  2  0
 63 72  1  0
 72 73  1  0
 73 74  1  0
 74 75  1  0
 75 76  2  0
 76 77  1  0
 77 78  2  0
 78 79  1  0
 79 80  2  0
 72 81  2  0
 81 82  1  0
 82 83  1  0
 83 84  1  0
 84 85  2  0
 85 86  1  0
 86 87  2  0
 87 88  1  0
 88 89  2  0
 81 90  1  0
 90 91  1  0
 91 92  2  0
 92 93  1  0
 93 94  2  0
 94 95  1  0
 95 96  1  0
 96 97  1  0
 97 98  2  0
 98 99  1  0
 99100  2  0
100101  1  0
101102  2  0
 94103  1  0
103104  1  0
104105  1  0
105106  1  0
106107  2  0
107108  1  0
108109  2  0
109110  1  0
110111  2  0
103112  2  0
112113  1  0
113114  1  0
114115  1  0
115116  2  0
116117  1  0
117118  2  0
118119  1  0
119120  2  0
 92121  1  0
121122  2  0
121123  1  0
124123  1  6
124125  1  0
125126  1  1
126127  1  0
127128  2  0
127129  1  0
129130  2  0
130131  1  0
131132  1  0
132133  1  0
133134  1  0
133135  1  0
133136  1  0
136137  1  0
136138  1  0
136139  1  0
131140  2  0
140141  1  0
141142  1  0
142143  1  0
143144  2  0
144145  1  0
145146  2  0
146147  1  0
147148  2  0
140149  1  0
149150  1  0
150151  1  0
151152  1  0
151153  1  0
151154  1  0
154155  1  0
154156  1  0
154157  1  0
149158  2  0
 16159  1  0
159160  2  0
160161  1  0
161162  1  0
162163  1  0
162164  1  0
162165  1  0
165166  1  0
165167  1  0
165168  1  0
160  5  1  0
125 21  1  0
158129  1  0
 56 27  1  0
124 57  1  0
148143  1  0
 37 32  1  0
 46 41  1  0
 55 50  1  0
 90 61  2  0
112 91  1  0
120115  1  0
 71 66  1  0
 80 75  1  0
 89 84  1  0
102 97  1  0
111106  1  0
M  END
$$$$
33
     RDKit          2D

140156  0  0  0  0  0  0  0  0999 V2000
   -0.7500  -14.2894    0.0000 C   0  0  0  0  0  0  0  0  0  0  0  0
   -1.5000  -12.9904    0.0000 O   0  0  0  0  0  0  0  0  0  0  0  0
   -0.7500  -11.6913    0.0000 C   0  0  0  0  0  0  0  0  0  0  0  0
   -1.5000  -10.3923    0.0000 O   0  0  0  0  0  0  0  0  0  0  0  0
   -0.7500   -9.0933    0.0000 C   0  0  0  0  0  0  0  0  0  0  0  0
   -1.5000   -7.7942    0.0000 C   0  0  0  0  0  0  0  0  0  0  0  0
   -2.9554   -8.1572    0.0000 O   0  0  0  0  0  0  0  0  0  0  0  0
   -0.7500   -6.4952    0.0000 C   0  0  0  0  0  0  0  0  0  0  0  0
    0.7500   -6.4952    0.0000 C   0  0  0  0  0  0  0  0  0  0  0  0
    1.5000   -5.1962    0.0000 C   0  0  0  0  0  0  0  0  0  0  0  0
    3.0000   -5.1962    0.0000 O   0  0  0  0  0  0  0  0  0  0  0  0
    0.7500   -3.8971    0.0000 O   0  0  0  0  0  0  0  0  0  0  0  0
    1.5000   -2.5981    0.0000 C   0  0  0  0  0  0  0  0  0  0  0  0
    0.7500   -1.2990    0.0000 C   0  0  0  0  0  0  0  0  0  0  0  0
    1.5000    0.0000    0.0000 O   0  0  0  0  0  0  0  0  0  0  0  0
    0.7500    1.2990    0.0000 C   0  0  0  0  0  0  0  0  0  0  0  0
    1.5000    2.5981    0.0000 O   0  0  0  0  0  0  0  0  0  0  0  0
    3.0000    2.5981    0.0000 C   0  0  0  0  0  0  0  0  0  0  0  0
    3.7500    1.2990    0.0000 O   0  0  0  0  0  0  0  0  0  0  0  0
    3.7500    3.8971    0.0000 C   0  0  0  0  0  0  0  0  0  0  0  0
    5.2500    3.8971    0.0000 C   0  0  0  0  0  0  0  0  0  0  0  0
    6.0000    5.1962    0.0000 C   0  0  0  0  0  0  0  0  0  0  0  0
    7.5000    5.1962    0.0000 O   0  0  0  0  0  0  0  0  0  0  0  0
    8.2500    3.8971    0.0000 C   0  0  0  0  0  0  0  0  0  0  0  0
    9.7500    3.8971    0.0000 C   0  0  0  0  0  0  0  0  0  0  0  0
   10.5000    2.5981    0.0000 C   0  0  0  0  0  0  0  0  0  0  0  0
   12.0000    2.5981    0.0000 C   0  0  0  0  0  0  0  0  0  0  0  0
   12.7500    3.8971    0.0000 C   0  0  0  0  0  0  0  0  0  0  0  0
   12.0000    5.1962    0.0000 C   0  0  0  0  0  0  0  0  0  0  0  0
   10.5000    5.1962    0.0000 C   0  0  0  0  0  0  0  0  0  0  0  0
    5.2500    6.4952    0.0000 C   0  0  0  0  0  0  0  0  0  0  0  0
    6.0000    7.7942    0.0000 O   0  0  0  0  0  0  0  0  0  0  0  0
    5.2500    9.0933    0.0000 C   0  0  0  0  0  0  0  0  0  0  0  0
    6.0000   10.3923    0.0000 C   0  0  0  0  0  0  0  0  0  0  0  0
    7.5000   10.3923    0.0000 C   0  0  0  0  0  0  0  0  0  0  0  0
    8.2500   11.6913    0.0000 C   0  0  0  0  0  0  0  0  0  0  0  0
    7.5000   12.9904    0.0000 C   0  0  0  0  0  0  0  0  0  0  0  0
    6.0000   12.9904    0.0000 C   0  0  0  0  0  0  0  0  0  0  0  0
    5.2500   11.6913    0.0000 C   0  0  0  0  0  0  0  0  0  0  0  0
    3.7500    6.4952    0.0000 C   0  0  0  0  0  0  0  0  0  0  0  0
    3.0000    7.7942    0.0000 O   0  0  0  0  0  0  0  0  0  0  0  0
    1.5000    7.7942    0.0000 C   0  0  0  0  0  0  0  0  0  0  0  0
    0.7500    9.0933    0.0000 C   0  0  0  0  0  0  0  0  0  0  0  0
    1.5000   10.3923    0.0000 C   0  0  0  0  0  0  0  0  0  0  0  0
    0.7500   11.6913    0.0000 C   0  0  0  0  0  0  0  0  0  0  0  0
   -0.7500   11.6913    0.0000 C   0  0  0  0  0  0  0  0  0  0  0  0
   -1.5000   10.3923    0.0000 C   0  0  0  0  0  0  0  0  0  0  0  0
   -0.7500    9.0933    0.0000 C   0  0  0  0  0  0  0  0  0  0  0  0
    3.0000    5.1962    0.0000 C   0  0  0  0  0  0  0  0  0  0  0  0
   -0.7500    1.2990    0.0000 C   0  0  0  0  0  0  0  0  0  0  0  0
   -0.9068    2.7908    0.0000 O   0  0  0  0  0  0  0  0  0  0  0  0
   -1.9105    3.9055    0.0000 C   0  0  0  0  0  0  0  0  0  0  0  0
   -1.1605    5.2046    0.0000 O   0  0  0  0  0  0  0  0  0  0  0  0
   -3.3777    4.2174    0.0000 C   0  0  0  0  0  0  0  0  0  0  0  0
   -3.2209    5.7092    0.0000 C   0  0  0  0  0  0  0  0  0  0  0  0
   -4.4344    6.5909    0.0000 C   0  0  0  0  0  0  0  0  0  0  0  0
   -4.2777    8.0826    0.0000 O   0  0  0  0  0  0  0  0  0  0  0  0
   -5.4912    8.9643    0.0000 C   0  0  0  0  0  0  0  0  0  0  0  0
   -5.3344   10.4561    0.0000 C   0  0  0  0  0  0  0  0  0  0  0  0
   -6.5479   11.3378    0.0000 C   0  0  0  0  0  0  0  0  0  0  0  0
   -6.3911   12.8296    0.0000 C   0  0  0  0  0  0  0  0  0  0  0  0
   -5.0208   13.4397    0.0000 C   0  0  0  0  0  0  0  0  0  0  0  0
   -3.8073   12.5580    0.0000 C   0  0  0  0  0  0  0  0  0  0  0  0
   -3.9641   11.0662    0.0000 C   0  0  0  0  0  0  0  0  0  0  0  0
   -5.8048    5.9808    0.0000 C   0  0  0  0  0  0  0  0  0  0  0  0
   -7.0183    6.8624    0.0000 O   0  0  0  0  0  0  0  0  0  0  0  0
   -6.8615    8.3542    0.0000 C   0  0  0  0  0  0  0  0  0  0  0  0
   -8.0750    9.2359    0.0000 C   0  0  0  0  0  0  0  0  0  0  0  0
   -7.9182   10.7277    0.0000 C   0  0  0  0  0  0  0  0  0  0  0  0
   -9.1318   11.6094    0.0000 C   0  0  0  0  0  0  0  0  0  0  0  0
  -10.5021   10.9993    0.0000 C   0  0  0  0  0  0  0  0  0  0  0  0
  -10.6589    9.5075    0.0000 C   0  0  0  0  0  0  0  0  0  0  0  0
   -9.4453    8.6258    0.0000 C   0  0  0  0  0  0  0  0  0  0  0  0
   -5.9616    4.4890    0.0000 C   0  0  0  0  0  0  0  0  0  0  0  0
   -7.3319    3.8789    0.0000 O   0  0  0  0  0  0  0  0  0  0  0  0
   -8.5454    4.7606    0.0000 C   0  0  0  0  0  0  0  0  0  0  0  0
   -9.9157    4.1504    0.0000 C   0  0  0  0  0  0  0  0  0  0  0  0
  -10.0725    2.6587    0.0000 C   0  0  0  0  0  0  0  0  0  0  0  0
  -11.4428    2.0486    0.0000 C   0  0  0  0  0  0  0  0  0  0  0  0
  -12.6564    2.9302    0.0000 C   0  0  0  0  0  0  0  0  0  0  0  0
  -12.4996    4.4220    0.0000 C   0  0  0  0  0  0  0  0  0  0  0  0
  -11.1292    5.0321    0.0000 C   0  0  0  0  0  0  0  0  0  0  0  0
   -4.7480    3.6073    0.0000 C   0  0  0  0  0  0  0  0  0  0  0  0
   -5.4980    2.3083    0.0000 C   0  0  0  0  0  0  0  0  0  0  0  0
   -5.3412    0.8165    0.0000 C   0  0  0  0  0  0  0  0  0  0  0  0
   -6.5548   -0.0652    0.0000 C   0  0  0  0  0  0  0  0  0  0  0  0
   -7.9251    0.5449    0.0000 C   0  0  0  0  0  0  0  0  0  0  0  0
   -9.1386   -0.3368    0.0000 O   0  0  0  0  0  0  0  0  0  0  0  0
  -10.5089    0.2733    0.0000 C   0  0  0  0  0  0  0  0  0  0  0  0
  -11.7224   -0.6083    0.0000 C   0  0  0  0  0  0  0  0  0  0  0  0
  -13.0928    0.0018    0.0000 C   0  0  0  0  0  0  0  0  0  0  0  0
  -14.3063   -0.8799    0.0000 C   0  0  0  0  0  0  0  0  0  0  0  0
  -14.1495   -2.3717    0.0000 C   0  0  0  0  0  0  0  0  0  0  0  0
  -12.7792   -2.9818    0.0000 C   0  0  0  0  0  0  0  0  0  0  0  0
  -11.5657   -2.1001    0.0000 C   0  0  0  0  0  0  0  0  0  0  0  0
   -8.0819    2.0367    0.0000 C   0  0  0  0  0  0  0  0  0  0  0  0
   -9.4522    2.6468    0.0000 O   0  0  0  0  0  0  0  0  0  0  0  0
  -10.6657    1.7651    0.0000 C   0  0  0  0  0  0  0  0  0  0  0  0
  -12.0360    2.3752    0.0000 C   0  0  0  0  0  0  0  0  0  0  0  0
  -12.1928    3.8670    0.0000 C   0  0  0  0  0  0  0  0  0  0  0  0
  -13.5631    4.4771    0.0000 C   0  0  0  0  0  0  0  0  0  0  0  0
  -14.7767    3.5954    0.0000 C   0  0  0  0  0  0  0  0  0  0  0  0
  -14.6199    2.1036    0.0000 C   0  0  0  0  0  0  0  0  0  0  0  0
  -13.2496    1.4935    0.0000 C   0  0  0  0  0  0  0  0  0  0  0  0
   -6.8683    2.9184    0.0000 C   0  0  0  0  0  0  0  0  0  0  0  0
   -7.0251    4.4102    0.0000 O   0  0  0  0  0  0  0  0  0  0  0  0
   -8.3955    5.0203    0.0000 C   0  0  0  0  0  0  0  0  0  0  0  0
   -8.5522    6.5120    0.0000 C   0  0  0  0  0  0  0  0  0  0  0  0
   -7.3387    7.3937    0.0000 C   0  0  0  0  0  0  0  0  0  0  0  0
   -7.4955    8.8855    0.0000 C   0  0  0  0  0  0  0  0  0  0  0  0
   -8.8658    9.4956    0.0000 C   0  0  0  0  0  0  0  0  0  0  0  0
  -10.0794    8.6139    0.0000 C   0  0  0  0  0  0  0  0  0  0  0  0
   -9.9226    7.1221    0.0000 C   0  0  0  0  0  0  0  0  0  0  0  0
   -4.3375   -0.2982    0.0000 C   0  0  0  0  0  0  0  0  0  0  0  0
   -5.0875   -1.5973    0.0000 O   0  0  0  0  0  0  0  0  0  0  0  0
   -2.8703   -0.6101    0.0000 O   0  0  0  0  0  0  0  0  0  0  0  0
   -1.5000    0.0000    0.0000 C   0  0  0  0  0  0  0  0  0  0  0  0
   -0.7500   -1.2990    0.0000 C   0  0  0  0  0  0  0  0  0  0  0  0
   -1.5000   -2.5981    0.0000 O   0  0  0  0  0  0  0  0  0  0  0  0
   -0.7500   -3.8971    0.0000 C   0  0  0  0  0  0  0  0  0  0  0  0
    0.7054   -4.2601    0.0000 O   0  0  0  0  0  0  0  0  0  0  0  0
   -1.5000   -5.1962    0.0000 C   0  0  0  0  0  0  0  0  0  0  0  0
   -3.0000   -5.1962    0.0000 C   0  0  0  0  0  0  0  0  0  0  0  0
   -3.7500   -6.4952    0.0000 C   0  0  0  0  0  0  0  0  0  0  0  0
   -5.2500   -6.4952    0.0000 O   0  0  0  0  0  0  0  0  0  0  0  0
   -3.0000   -7.7942    0.0000 C   0  0  0  0  0  0  0  0  0  0  0  0
   -3.7500   -9.0933    0.0000 O   0  0  0  0  0  0  0  0  0  0  0  0
   -5.2500   -9.0933    0.0000 C   0  0  0  0  0  0  0  0  0  0  0  0
   -6.0000  -10.3923    0.0000 C   0  0  0  0  0  0  0  0  0  0  0  0
   -7.5000  -10.3923    0.0000 C   0  0  0  0  0  0  0  0  0  0  0  0
   -8.2500  -11.6913    0.0000 C   0  0  0  0  0  0  0  0  0  0  0  0
   -7.5000  -12.9904    0.0000 C   0  0  0  0  0  0  0  0  0  0  0  0
   -6.0000  -12.9904    0.0000 C   0  0  0  0  0  0  0  0  0  0  0  0
   -5.2500  -11.6913    0.0000 C   0  0  0  0  0  0  0  0  0  0  0  0
   -1.5000   -7.7942    0.0000 C   0  0  0  0  0  0  0  0  0  0  0  0
   -0.4580   -8.8732    0.0000 O   0  0  0  0  0  0  0  0  0  0  0  0
   -0.7500   -6.4952    0.0000 C   0  0  0  0  0  0  0  0  0  0  0  0
    1.5000   -7.7942    0.0000 C   0  0  0  0  0  0  0  0  0  0  0  0
    0.7500   -9.0933    0.0000 C   0  0  0  0  0  0  0  0  0  0  0  0
    1.5000  -10.3923    0.0000 O   0  0  0  0  0  0  0  0  0  0  0  0
  1  2  1  0
  2  3  1  0
  3  4  1  0
  4  5  1  0
  5  6  2  0
  6  7  1  0
  6  8  1  0
  8  9  2  0
  9 10  1  0
 10 11  2  0
 10 12  1  0
 12 13  1  0
 14 13  1  6
 14 15  1  0
 15 16  1  0
 16 17  1  6
 17 18  1  0
 18 19  2  0
 18 20  1  0
 20 21  2  0
 21 22  1  0
 22 23  1  0
 23 24  1  0
 24 25  1  0
 25 26  2  0
 26 27  1  0
 27 28  2  0
 28 29  1  0
 29 30  2  0
 22 31  2  0
 31 32  1  0
 32 33  1  0
 33 34  1  0
 34 35  2  0
 35 36  1  0
 36 37  2  0
 37 38  1  0
 38 39  2  0
 31 40  1  0
 40 41  1  0
 41 42  1  0
 42 43  1  0
 43 44  2  0
 44 45  1  0
 45 46  2  0
 46 47  1  0
 47 48  2  0
 40 49  2  0
 16 50  1  0
 50 51  1  1
 51 52  1  0
 52 53  2  0
 52 54  1  0
 54 55  1  0
 55 56  2  0
 56 57  1  0
 57 58  1  0
 58 59  1  0
 59 60  2  0
 60 61  1  0
 61 62  2  0
 62 63  1  0
 63 64  2  0
 56 65  1  0
 65 66  1  0
 66 67  1  0
 67 68  1  0
 68 69  2  0
 69 70  1  0
 70 71  2  0
 71 72  1  0
 72 73  2  0
 65 74  2  0
 74 75  1  0
 75 76  1  0
 76 77  1  0
 77 78  2  0
 78 79  1  0
 79 80  2  0
 80 81  1  0
 81 82  2  0
 74 83  1  0
 83 84  1  0
 84 85  2  0
 85 86  1  0
 86 87  2  0
 87 88  1  0
 88 89  1  0
 89 90  1  0
 90 91  2  0
 91 92  1  0
 92 93  2  0
 93 94  1  0
 94 95  2  0
 87 96  1  0
 96 97  1  0
 97 98  1  0
 98 99  1  0
 99100  2  0
100101  1  0
101102  2  0
102103  1  0
103104  2  0
 96105  2  0
105106  1  0
106107  1  0
107108  1  0
108109  2  0
109110  1  0
110111  2  0
111112  1  0
112113  2  0
 85114  1  0
114115  2  0
114116  1  0
117116  1  6
117118  1  0
118119  1  1
119120  1  0
120121  2  0
120122  1  0
122123  2  0
123124  1  0
124125  1  0
124126  2  0
126127  1  0
127128  1  0
128129  1  0
129130  2  0
130131  1  0
131132  2  0
132133  1  0
133134  2  0
126135  1  0
135136  1  0
135137  2  0
  9138  1  0
138139  2  0
139140  1  0
139  5  1  0
118 14  1  0
137122  1  0
 49 20  1  0
117 50  1  0
134129  1  0
 30 25  1  0
 39 34  1  0
 48 43  1  0
 83 54  2  0
105 84  1  0
113108  1  0
 64 59  1  0
 73 68  1  0
 82 77  1  0
 95 90  1  0
104 99  1  0
M  END
$$$$
37
     RDKit          2D

140157  0  0  0  0  0  0  0  0999 V2000
    6.0000   -2.5981    0.0000 C   0  0  0  0  0  0  0  0  0  0  0  0
    5.2500   -1.2990    0.0000 O   0  0  0  0  0  0  0  0  0  0  0  0
    3.7500   -1.2990    0.0000 C   0  0  0  0  0  0  0  0  0  0  0  0
    3.0000    0.0000    0.0000 O   0  0  0  0  0  0  0  0  0  0  0  0
    1.5000    0.0000    0.0000 C   0  0  0  0  0  0  0  0  0  0  0  0
    0.7500   -1.2990    0.0000 C   0  0  0  0  0  0  0  0  0  0  0  0
    1.5000   -2.5981    0.0000 O   0  0  0  0  0  0  0  0  0  0  0  0
   -0.7500   -1.2990    0.0000 C   0  0  0  0  0  0  0  0  0  0  0  0
   -1.5000    0.0000    0.0000 C   0  0  0  0  0  0  0  0  0  0  0  0
   -0.7500    1.2990    0.0000 C   0  0  0  0  0  0  0  0  0  0  0  0
    0.7500    1.2990    0.0000 C   0  0  0  0  0  0  0  0  0  0  0  0
    1.2298    1.9357    0.0000 O   0  0  0  0  0  0  0  0  0  0  0  0
   -0.8214    2.7973    0.0000 C   0  0  0  0  0  0  0  0  0  0  0  0
   -1.6915    4.0192    0.0000 C   0  0  0  0  0  0  0  0  0  0  0  0
   -1.0683    5.3837    0.0000 C   0  0  0  0  0  0  0  0  0  0  0  0
    0.4249    5.5262    0.0000 C   0  0  0  0  0  0  0  0  0  0  0  0
    1.0480    6.8907    0.0000 O   0  0  0  0  0  0  0  0  0  0  0  0
    1.2950    4.3044    0.0000 C   0  0  0  0  0  0  0  0  0  0  0  0
    2.7882    4.4470    0.0000 O   0  0  0  0  0  0  0  0  0  0  0  0
    3.4113    5.8114    0.0000 C   0  0  0  0  0  0  0  0  0  0  0  0
    4.9045    5.9540    0.0000 C   0  0  0  0  0  0  0  0  0  0  0  0
    5.7746    4.7321    0.0000 C   0  0  0  0  0  0  0  0  0  0  0  0
    7.2678    4.8747    0.0000 C   0  0  0  0  0  0  0  0  0  0  0  0
    7.8909    6.2392    0.0000 C   0  0  0  0  0  0  0  0  0  0  0  0
    7.0208    7.4610    0.0000 C   0  0  0  0  0  0  0  0  0  0  0  0
    5.5276    7.3184    0.0000 C   0  0  0  0  0  0  0  0  0  0  0  0
    0.6718    2.9399    0.0000 C   0  0  0  0  0  0  0  0  0  0  0  0
    1.2099    2.3518    0.0000 O   0  0  0  0  0  0  0  0  0  0  0  0
   -3.0840    4.5767    0.0000 C   0  0  0  0  0  0  0  0  0  0  0  0
   -2.9414    6.0699    0.0000 O   0  0  0  0  0  0  0  0  0  0  0  0
   -4.5569    4.2928    0.0000 O   0  0  0  0  0  0  0  0  0  0  0  0
   -5.6425    3.2577    0.0000 C   0  0  0  0  0  0  0  0  0  0  0  0
   -6.7281    4.2928    0.0000 C   0  0  0  0  0  0  0  0  0  0  0  0
   -5.8121    5.4807    0.0000 O   0  0  0  0  0  0  0  0  0  0  0  0
   -5.7693    6.9801    0.0000 C   0  0  0  0  0  0  0  0  0  0  0  0
   -4.3301    7.4027    0.0000 O   0  0  0  0  0  0  0  0  0  0  0  0
   -6.6160    8.2183    0.0000 C   0  0  0  0  0  0  0  0  0  0  0  0
   -5.4730    9.1897    0.0000 C   0  0  0  0  0  0  0  0  0  0  0  0
   -5.7429   10.6653    0.0000 C   0  0  0  0  0  0  0  0  0  0  0  0
   -4.6000   11.6367    0.0000 O   0  0  0  0  0  0  0  0  0  0  0  0
   -3.1872   11.1326    0.0000 C   0  0  0  0  0  0  0  0  0  0  0  0
   -2.0443   12.1041    0.0000 C   0  0  0  0  0  0  0  0  0  0  0  0
   -0.6315   11.6000    0.0000 C   0  0  0  0  0  0  0  0  0  0  0  0
    0.5114   12.5715    0.0000 C   0  0  0  0  0  0  0  0  0  0  0  0
    0.2416   14.0470    0.0000 C   0  0  0  0  0  0  0  0  0  0  0  0
   -1.1712   14.5511    0.0000 C   0  0  0  0  0  0  0  0  0  0  0  0
   -2.3141   13.5796    0.0000 C   0  0  0  0  0  0  0  0  0  0  0  0
   -7.1556   11.1693    0.0000 C   0  0  0  0  0  0  0  0  0  0  0  0
   -7.4255   12.6449    0.0000 O   0  0  0  0  0  0  0  0  0  0  0  0
   -6.2826   13.6163    0.0000 C   0  0  0  0  0  0  0  0  0  0  0  0
   -6.5524   15.0918    0.0000 C   0  0  0  0  0  0  0  0  0  0  0  0
   -5.4095   16.0633    0.0000 C   0  0  0  0  0  0  0  0  0  0  0  0
   -5.6793   17.5388    0.0000 C   0  0  0  0  0  0  0  0  0  0  0  0
   -7.0921   18.0429    0.0000 C   0  0  0  0  0  0  0  0  0  0  0  0
   -8.2350   17.0714    0.0000 C   0  0  0  0  0  0  0  0  0  0  0  0
   -7.9652   15.5959    0.0000 C   0  0  0  0  0  0  0  0  0  0  0  0
   -8.2986   10.1979    0.0000 C   0  0  0  0  0  0  0  0  0  0  0  0
   -9.7113   10.7019    0.0000 O   0  0  0  0  0  0  0  0  0  0  0  0
   -9.9812   12.1775    0.0000 C   0  0  0  0  0  0  0  0  0  0  0  0
  -11.3939   12.6815    0.0000 C   0  0  0  0  0  0  0  0  0  0  0  0
  -11.6638   14.1571    0.0000 C   0  0  0  0  0  0  0  0  0  0  0  0
  -13.0766   14.6612    0.0000 C   0  0  0  0  0  0  0  0  0  0  0  0
  -14.2195   13.6897    0.0000 C   0  0  0  0  0  0  0  0  0  0  0  0
  -13.9496   12.2142    0.0000 C   0  0  0  0  0  0  0  0  0  0  0  0
  -12.5369   11.7101    0.0000 C   0  0  0  0  0  0  0  0  0  0  0  0
   -8.0287    8.7223    0.0000 C   0  0  0  0  0  0  0  0  0  0  0  0
   -9.4680    8.2997    0.0000 C   0  0  0  0  0  0  0  0  0  0  0  0
  -10.3839    7.1119    0.0000 C   0  0  0  0  0  0  0  0  0  0  0  0
  -11.8706    7.3112    0.0000 C   0  0  0  0  0  0  0  0  0  0  0  0
  -12.4414    8.6984    0.0000 C   0  0  0  0  0  0  0  0  0  0  0  0
  -13.9281    8.8977    0.0000 O   0  0  0  0  0  0  0  0  0  0  0  0
  -14.4988   10.2849    0.0000 C   0  0  0  0  0  0  0  0  0  0  0  0
  -15.9855   10.4842    0.0000 C   0  0  0  0  0  0  0  0  0  0  0  0
  -16.5562   11.8714    0.0000 C   0  0  0  0  0  0  0  0  0  0  0  0
  -18.0429   12.0707    0.0000 C   0  0  0  0  0  0  0  0  0  0  0  0
  -18.9589   10.8829    0.0000 C   0  0  0  0  0  0  0  0  0  0  0  0
  -18.3882    9.4957    0.0000 C   0  0  0  0  0  0  0  0  0  0  0  0
  -16.9015    9.2964    0.0000 C   0  0  0  0  0  0  0  0  0  0  0  0
  -11.5254    9.8863    0.0000 C   0  0  0  0  0  0  0  0  0  0  0  0
  -12.0961   11.2734    0.0000 O   0  0  0  0  0  0  0  0  0  0  0  0
  -13.5828   11.4728    0.0000 C   0  0  0  0  0  0  0  0  0  0  0  0
  -14.1535   12.8599    0.0000 C   0  0  0  0  0  0  0  0  0  0  0  0
  -13.2376   14.0478    0.0000 C   0  0  0  0  0  0  0  0  0  0  0  0
  -13.8083   15.4350    0.0000 C   0  0  0  0  0  0  0  0  0  0  0  0
  -15.2950   15.6343    0.0000 C   0  0  0  0  0  0  0  0  0  0  0  0
  -16.2110   14.4465    0.0000 C   0  0  0  0  0  0  0  0  0  0  0  0
  -15.6402   13.0593    0.0000 C   0  0  0  0  0  0  0  0  0  0  0  0
  -10.0387    9.6869    0.0000 C   0  0  0  0  0  0  0  0  0  0  0  0
   -9.1227   10.8748    0.0000 O   0  0  0  0  0  0  0  0  0  0  0  0
   -9.6934   12.2620    0.0000 C   0  0  0  0  0  0  0  0  0  0  0  0
   -8.7775   13.4498    0.0000 C   0  0  0  0  0  0  0  0  0  0  0  0
   -7.2908   13.2505    0.0000 C   0  0  0  0  0  0  0  0  0  0  0  0
   -6.3748   14.4383    0.0000 C   0  0  0  0  0  0  0  0  0  0  0  0
   -6.9455   15.8255    0.0000 C   0  0  0  0  0  0  0  0  0  0  0  0
   -8.4322   16.0248    0.0000 C   0  0  0  0  0  0  0  0  0  0  0  0
   -9.3482   14.8370    0.0000 C   0  0  0  0  0  0  0  0  0  0  0  0
  -10.4268    5.6125    0.0000 C   0  0  0  0  0  0  0  0  0  0  0  0
  -11.8660    5.1899    0.0000 O   0  0  0  0  0  0  0  0  0  0  0  0
   -9.5801    4.3743    0.0000 O   0  0  0  0  0  0  0  0  0  0  0  0
   -8.1673    3.8702    0.0000 C   0  0  0  0  0  0  0  0  0  0  0  0
   -8.5210    2.4125    0.0000 C   0  0  0  0  0  0  0  0  0  0  0  0
   -9.9602    1.9899    0.0000 O   0  0  0  0  0  0  0  0  0  0  0  0
  -10.3139    0.5322    0.0000 C   0  0  0  0  0  0  0  0  0  0  0  0
   -9.2283   -0.5029    0.0000 O   0  0  0  0  0  0  0  0  0  0  0  0
  -11.7531    0.1096    0.0000 C   0  0  0  0  0  0  0  0  0  0  0  0
  -12.8387    1.1447    0.0000 C   0  0  0  0  0  0  0  0  0  0  0  0
  -14.2779    0.7221    0.0000 C   0  0  0  0  0  0  0  0  0  0  0  0
  -15.3635    1.7572    0.0000 O   0  0  0  0  0  0  0  0  0  0  0  0
  -15.0099    3.2149    0.0000 C   0  0  0  0  0  0  0  0  0  0  0  0
  -16.0955    4.2501    0.0000 C   0  0  0  0  0  0  0  0  0  0  0  0
  -15.7419    5.7078    0.0000 C   0  0  0  0  0  0  0  0  0  0  0  0
  -16.8275    6.7429    0.0000 C   0  0  0  0  0  0  0  0  0  0  0  0
  -18.2667    6.3203    0.0000 C   0  0  0  0  0  0  0  0  0  0  0  0
  -18.6203    4.8626    0.0000 C   0  0  0  0  0  0  0  0  0  0  0  0
  -17.5347    3.8275    0.0000 C   0  0  0  0  0  0  0  0  0  0  0  0
  -14.6316   -0.7356    0.0000 C   0  0  0  0  0  0  0  0  0  0  0  0
  -16.0708   -1.1582    0.0000 O   0  0  0  0  0  0  0  0  0  0  0  0
  -16.4245   -2.6159    0.0000 C   0  0  0  0  0  0  0  0  0  0  0  0
  -17.8637   -3.0385    0.0000 C   0  0  0  0  0  0  0  0  0  0  0  0
  -18.9493   -2.0034    0.0000 C   0  0  0  0  0  0  0  0  0  0  0  0
  -20.3885   -2.4260    0.0000 C   0  0  0  0  0  0  0  0  0  0  0  0
  -20.7422   -3.8837    0.0000 C   0  0  0  0  0  0  0  0  0  0  0  0
  -19.6566   -4.9188    0.0000 C   0  0  0  0  0  0  0  0  0  0  0  0
  -18.2173   -4.4962    0.0000 C   0  0  0  0  0  0  0  0  0  0  0  0
  -13.5460   -1.7707    0.0000 C   0  0  0  0  0  0  0  0  0  0  0  0
  -13.8996   -3.2284    0.0000 O   0  0  0  0  0  0  0  0  0  0  0  0
  -12.8140   -4.2636    0.0000 C   0  0  0  0  0  0  0  0  0  0  0  0
  -13.1677   -5.7213    0.0000 C   0  0  0  0  0  0  0  0  0  0  0  0
  -14.6069   -6.1439    0.0000 C   0  0  0  0  0  0  0  0  0  0  0  0
  -14.9605   -7.6016    0.0000 C   0  0  0  0  0  0  0  0  0  0  0  0
  -13.8749   -8.6367    0.0000 C   0  0  0  0  0  0  0  0  0  0  0  0
  -12.4357   -8.2141    0.0000 C   0  0  0  0  0  0  0  0  0  0  0  0
  -12.0821   -6.7564    0.0000 C   0  0  0  0  0  0  0  0  0  0  0  0
  -12.1067   -1.3481    0.0000 C   0  0  0  0  0  0  0  0  0  0  0  0
   -7.4354    1.3774    0.0000 O   0  0  0  0  0  0  0  0  0  0  0  0
   -5.9961    1.8000    0.0000 C   0  0  0  0  0  0  0  0  0  0  0  0
   -5.5055    0.3825    0.0000 C   0  0  0  0  0  0  0  0  0  0  0  0
   -4.3265   -0.5448    0.0000 O   0  0  0  0  0  0  0  0  0  0  0  0
   -2.8333   -0.6873    0.0000 C   0  0  0  0  0  0  0  0  0  0  0  0
   -2.5494   -2.1602    0.0000 O   0  0  0  0  0  0  0  0  0  0  0  0
  1  2  1  0
  2  3  1  0
  3  4  1  0
  4  5  1  0
  5  6  1  0
  6  7  1  0
  6  8  2  0
  8  9  1  0
  9 10  2  0
 10 11  1  0
 11 12  1  0
 10 13  1  0
 13 14  2  0
 14 15  1  0
 15 16  2  0
 16 17  1  0
 16 18  1  0
 18 19  1  0
 19 20  1  0
 20 21  1  0
 21 22  2  0
 22 23  1  0
 23 24  2  0
 24 25  1  0
 25 26  2  0
 18 27  2  0
 27 28  1  0
 14 29  1  0
 29 30  2  0
 29 31  1  0
 32 31  1  6
 32 33  1  0
 33 34  1  1
 34 35  1  0
 35 36  2  0
 35 37  1  0
 37 38  1  0
 38 39  2  0
 39 40  1  0
 40 41  1  0
 41 42  1  0
 42 43  2  0
 43 44  1  0
 44 45  2  0
 45 46  1  0
 46 47  2  0
 39 48  1  0
 48 49  1  0
 49 50  1  0
 50 51  1  0
 51 52  2  0
 52 53  1  0
 53 54  2  0
 54 55  1  0
 55 56  2  0
 48 57  2  0
 57 58  1  0
 58 59  1  0
 59 60  1  0
 60 61  2  0
 61 62  1  0
 62 63  2  0
 63 64  1  0
 64 65  2  0
 57 66  1  0
 66 67  1  0
 67 68  2  0
 68 69  1  0
 69 70  2  0
 70 71  1  0
 71 72  1  0
 72 73  1  0
 73 74  2  0
 74 75  1  0
 75 76  2  0
 76 77  1  0
 77 78  2  0
 70 79  1  0
 79 80  1  0
 80 81  1  0
 81 82  1  0
 82 83  2  0
 83 84  1  0
 84 85  2  0
 85 86  1  0
 86 87  2  0
 79 88  2  0
 88 89  1  0
 89 90  1  0
 90 91  1  0
 91 92  2  0
 92 93  1  0
 93 94  2  0
 94 95  1  0
 95 96  2  0
 68 97  1  0
 97 98  2  0
 97 99  1  0
100 99  1  6
100101  1  0
101102  1  1
102103  1  0
103104  2  0
103105  1  0
105106  2  0
106107  1  0
107108  1  0
108109  1  0
109110  1  0
110111  2  0
111112  1  0
112113  2  0
113114  1  0
114115  2  0
107116  2  0
116117  1  0
117118  1  0
118119  1  0
119120  2  0
120121  1  0
121122  2  0
122123  1  0
123124  2  0
116125  1  0
125126  1  0
126127  1  0
127128  1  0
128129  2  0
129130  1  0
130131  2  0
131132  1  0
132133  2  0
125134  2  0
101135  1  0
135136  1  0
136137  1  1
137138  1  0
138139  1  0
139140  2  0
 11  5  2  0
 27 13  1  0
136 32  1  0
139  9  1  0
 26 21  1  0
100 33  1  0
134105  1  0
 66 37  2  0
 88 67  1  0
 96 91  1  0
115110  1  0
124119  1  0
133128  1  0
 47 42  1  0
 56 51  1  0
 65 60  1  0
 78 73  1  0
 87 82  1  0
M  END
$$$$
39
     RDKit          2D

168189  0  0  0  0  0  0  0  0999 V2000
    6.0000   -2.5981    0.0000 C   0  0  0  0  0  0  0  0  0  0  0  0
    5.2500   -1.2990    0.0000 O   0  0  0  0  0  0  0  0  0  0  0  0
    3.7500   -1.2990    0.0000 C   0  0  0  0  0  0  0  0  0  0  0  0
    3.0000    0.0000    0.0000 O   0  0  0  0  0  0  0  0  0  0  0  0
    1.5000    0.0000    0.0000 C   0  0  0  0  0  0  0  0  0  0  0  0
    0.7500   -1.2990    0.0000 C   0  0  0  0  0  0  0  0  0  0  0  0
    1.5000   -2.5981    0.0000 O   0  0  0  0  0  0  0  0  0  0  0  0
    0.7500   -3.8971    0.0000 C   0  0  0  0  0  0  0  0  0  0  0  0
    1.5000   -5.1962    0.0000 C   0  0  0  0  0  0  0  0  0  0  0  0
    0.7500   -6.4952    0.0000 C   0  0  0  0  0  0  0  0  0  0  0  0
    1.5000   -7.7942    0.0000 C   0  0  0  0  0  0  0  0  0  0  0  0
    3.0000   -7.7942    0.0000 C   0  0  0  0  0  0  0  0  0  0  0  0
    3.7500   -6.4952    0.0000 C   0  0  0  0  0  0  0  0  0  0  0  0
    3.0000   -5.1962    0.0000 C   0  0  0  0  0  0  0  0  0  0  0  0
   -0.7500   -1.2990    0.0000 C   0  0  0  0  0  0  0  0  0  0  0  0
   -1.5000    0.0000    0.0000 C   0  0  0  0  0  0  0  0  0  0  0  0
   -0.7500    1.2990    0.0000 C   0  0  0  0  0  0  0  0  0  0  0  0
    0.7500    1.2990    0.0000 C   0  0  0  0  0  0  0  0  0  0  0  0
    1.5000    2.5981    0.0000 O   0  0  0  0  0  0  0  0  0  0  0  0
    3.0000    2.5981    0.0000 C   0  0  0  0  0  0  0  0  0  0  0  0
    3.7500    3.8971    0.0000 C   0  0  0  0  0  0  0  0  0  0  0  0
    3.0000    5.1962    0.0000 C   0  0  0  0  0  0  0  0  0  0  0  0
    3.7500    6.4952    0.0000 C   0  0  0  0  0  0  0  0  0  0  0  0
    5.2500    6.4952    0.0000 C   0  0  0  0  0  0  0  0  0  0  0  0
    6.0000    5.1962    0.0000 C   0  0  0  0  0  0  0  0  0  0  0  0
    5.2500    3.8971    0.0000 C   0  0  0  0  0  0  0  0  0  0  0  0
   -0.8214    2.7973    0.0000 C   0  0  0  0  0  0  0  0  0  0  0  0
   -1.6915    4.0192    0.0000 C   0  0  0  0  0  0  0  0  0  0  0  0
   -1.0683    5.3837    0.0000 C   0  0  0  0  0  0  0  0  0  0  0  0
    0.4249    5.5262    0.0000 C   0  0  0  0  0  0  0  0  0  0  0  0
    1.0480    6.8907    0.0000 O   0  0  0  0  0  0  0  0  0  0  0  0
    2.5412    7.0333    0.0000 C   0  0  0  0  0  0  0  0  0  0  0  0
    3.1643    8.3977    0.0000 C   0  0  0  0  0  0  0  0  0  0  0  0
    4.6575    8.5403    0.0000 C   0  0  0  0  0  0  0  0  0  0  0  0
    5.2807    9.9047    0.0000 C   0  0  0  0  0  0  0  0  0  0  0  0
    4.4106   11.1266    0.0000 C   0  0  0  0  0  0  0  0  0  0  0  0
    2.9174   10.9840    0.0000 C   0  0  0  0  0  0  0  0  0  0  0  0
    2.2942    9.6196    0.0000 C   0  0  0  0  0  0  0  0  0  0  0  0
    1.2950    4.3044    0.0000 C   0  0  0  0  0  0  0  0  0  0  0  0
    2.7882    4.4470    0.0000 O   0  0  0  0  0  0  0  0  0  0  0  0
    3.4113    5.8114    0.0000 C   0  0  0  0  0  0  0  0  0  0  0  0
    4.9045    5.9540    0.0000 C   0  0  0  0  0  0  0  0  0  0  0  0
    5.7746    4.7321    0.0000 C   0  0  0  0  0  0  0  0  0  0  0  0
    7.2678    4.8747    0.0000 C   0  0  0  0  0  0  0  0  0  0  0  0
    7.8909    6.2392    0.0000 C   0  0  0  0  0  0  0  0  0  0  0  0
    7.0208    7.4610    0.0000 C   0  0  0  0  0  0  0  0  0  0  0  0
    5.5276    7.3184    0.0000 C   0  0  0  0  0  0  0  0  0  0  0  0
    0.6718    2.9399    0.0000 C   0  0  0  0  0  0  0  0  0  0  0  0
    1.5419    1.7181    0.0000 O   0  0  0  0  0  0  0  0  0  0  0  0
    3.0351    1.8606    0.0000 C   0  0  0  0  0  0  0  0  0  0  0  0
    3.9052    0.6388    0.0000 C   0  0  0  0  0  0  0  0  0  0  0  0
    3.2821   -0.7257    0.0000 C   0  0  0  0  0  0  0  0  0  0  0  0
    4.1522   -1.9475    0.0000 C   0  0  0  0  0  0  0  0  0  0  0  0
    5.6454   -1.8049    0.0000 C   0  0  0  0  0  0  0  0  0  0  0  0
    6.2685   -0.4405    0.0000 C   0  0  0  0  0  0  0  0  0  0  0  0
    5.3984    0.7814    0.0000 C   0  0  0  0  0  0  0  0  0  0  0  0
   -3.0840    4.5767    0.0000 C   0  0  0  0  0  0  0  0  0  0  0  0
   -2.9414    6.0699    0.0000 O   0  0  0  0  0  0  0  0  0  0  0  0
   -4.5569    4.2928    0.0000 O   0  0  0  0  0  0  0  0  0  0  0  0
   -5.6425    3.2577    0.0000 C   0  0  0  0  0  0  0  0  0  0  0  0
   -6.7281    4.2928    0.0000 C   0  0  0  0  0  0  0  0  0  0  0  0
   -5.8121    5.4807    0.0000 O   0  0  0  0  0  0  0  0  0  0  0  0
   -5.7693    6.9801    0.0000 C   0  0  0  0  0  0  0  0  0  0  0  0
   -4.3301    7.4027    0.0000 O   0  0  0  0  0  0  0  0  0  0  0  0
   -6.6160    8.2183    0.0000 C   0  0  0  0  0  0  0  0  0  0  0  0
   -5.4730    9.1897    0.0000 C   0  0  0  0  0  0  0  0  0  0  0  0
   -5.7429   10.6653    0.0000 C   0  0  0  0  0  0  0  0  0  0  0  0
   -4.6000   11.6367    0.0000 O   0  0  0  0  0  0  0  0  0  0  0  0
   -3.1872   11.1326    0.0000 C   0  0  0  0  0  0  0  0  0  0  0  0
   -2.0443   12.1041    0.0000 C   0  0  0  0  0  0  0  0  0  0  0  0
   -0.6315   11.6000    0.0000 C   0  0  0  0  0  0  0  0  0  0  0  0
    0.5114   12.5715    0.0000 C   0  0  0  0  0  0  0  0  0  0  0  0
    0.2416   14.0470    0.0000 C   0  0  0  0  0  0  0  0  0  0  0  0
   -1.1712   14.5511    0.0000 C   0  0  0  0  0  0  0  0  0  0  0  0
   -2.3141   13.5796    0.0000 C   0  0  0  0  0  0  0  0  0  0  0  0
   -7.1556   11.1693    0.0000 C   0  0  0  0  0  0  0  0  0  0  0  0
   -7.4255   12.6449    0.0000 O   0  0  0  0  0  0  0  0  0  0  0  0
   -6.2826   13.6163    0.0000 C   0  0  0  0  0  0  0  0  0  0  0  0
   -6.5524   15.0918    0.0000 C   0  0  0  0  0  0  0  0  0  0  0  0
   -5.4095   16.0633    0.0000 C   0  0  0  0  0  0  0  0  0  0  0  0
   -5.6793   17.5388    0.0000 C   0  0  0  0  0  0  0  0  0  0  0  0
   -7.0921   18.0429    0.0000 C   0  0  0  0  0  0  0  0  0  0  0  0
   -8.2350   17.0714    0.0000 C   0  0  0  0  0  0  0  0  0  0  0  0
   -7.9652   15.5959    0.0000 C   0  0  0  0  0  0  0  0  0  0  0  0
   -8.2986   10.1979    0.0000 C   0  0  0  0  0  0  0  0  0  0  0  0
   -9.7113   10.7019    0.0000 O   0  0  0  0  0  0  0  0  0  0  0  0
   -9.9812   12.1775    0.0000 C   0  0  0  0  0  0  0  0  0  0  0  0
  -11.3939   12.6815    0.0000 C   0  0  0  0  0  0  0  0  0  0  0  0
  -11.6638   14.1571    0.0000 C   0  0  0  0  0  0  0  0  0  0  0  0
  -13.0766   14.6612    0.0000 C   0  0  0  0  0  0  0  0  0  0  0  0
  -14.2195   13.6897    0.0000 C   0  0  0  0  0  0  0  0  0  0  0  0
  -13.9496   12.2142    0.0000 C   0  0  0  0  0  0  0  0  0  0  0  0
  -12.5369   11.7101    0.0000 C   0  0  0  0  0  0  0  0  0  0  0  0
   -8.0287    8.7223    0.0000 C   0  0  0  0  0  0  0  0  0  0  0  0
   -9.4680    8.2997    0.0000 C   0  0  0  0  0  0  0  0  0  0  0  0
  -10.3839    7.1119    0.0000 C   0  0  0  0  0  0  0  0  0  0  0  0
  -11.8706    7.3112    0.0000 C   0  0  0  0  0  0  0  0  0  0  0  0
  -12.4414    8.6984    0.0000 C   0  0  0  0  0  0  0  0  0  0  0  0
  -13.9281    8.8977    0.0000 O   0  0  0  0  0  0  0  0  0  0  0  0
  -14.4988   10.2849    0.0000 C   0  0  0  0  0  0  0  0  0  0  0  0
  -15.9855   10.4842    0.0000 C   0  0  0  0  0  0  0  0  0  0  0  0
  -16.5562   11.8714    0.0000 C   0  0  0  0  0  0  0  0  0  0  0  0
  -18.0429   12.0707    0.0000 C   0  0  0  0  0  0  0  0  0  0  0  0
  -18.9589   10.8829    0.0000 C   0  0  0  0  0  0  0  0  0  0  0  0
  -18.3882    9.4957    0.0000 C   0  0  0  0  0  0  0  0  0  0  0  0
  -16.9015    9.2964    0.0000 C   0  0  0  0  0  0  0  0  0  0  0  0
  -11.5254    9.8863    0.0000 C   0  0  0  0  0  0  0  0  0  0  0  0
  -12.0961   11.2734    0.0000 O   0  0  0  0  0  0  0  0  0  0  0  0
  -13.5828   11.4728    0.0000 C   0  0  0  0  0  0  0  0  0  0  0  0
  -14.1535   12.8599    0.0000 C   0  0  0  0  0  0  0  0  0  0  0  0
  -13.2376   14.0478    0.0000 C   0  0  0  0  0  0  0  0  0  0  0  0
  -13.8083   15.4350    0.0000 C   0  0  0  0  0  0  0  0  0  0  0  0
  -15.2950   15.6343    0.0000 C   0  0  0  0  0  0  0  0  0  0  0  0
  -16.2110   14.4465    0.0000 C   0  0  0  0  0  0  0  0  0  0  0  0
  -15.6402   13.0593    0.0000 C   0  0  0  0  0  0  0  0  0  0  0  0
  -10.0387    9.6869    0.0000 C   0  0  0  0  0  0  0  0  0  0  0  0
   -9.1227   10.8748    0.0000 O   0  0  0  0  0  0  0  0  0  0  0  0
   -9.6934   12.2620    0.0000 C   0  0  0  0  0  0  0  0  0  0  0  0
   -8.7775   13.4498    0.0000 C   0  0  0  0  0  0  0  0  0  0  0  0
   -7.2908   13.2505    0.0000 C   0  0  0  0  0  0  0  0  0  0  0  0
   -6.3748   14.4383    0.0000 C   0  0  0  0  0  0  0  0  0  0  0  0
   -6.9455   15.8255    0.0000 C   0  0  0  0  0  0  0  0  0  0  0  0
   -8.4322   16.0248    0.0000 C   0  0  0  0  0  0  0  0  0  0  0  0
   -9.3482   14.8370    0.0000 C   0  0  0  0  0  0  0  0  0  0  0  0
  -10.4268    5.6125    0.0000 C   0  0  0  0  0  0  0  0  0  0  0  0
  -11.8660    5.1899    0.0000 O   0  0  0  0  0  0  0  0  0  0  0  0
   -9.5801    4.3743    0.0000 O   0  0  0  0  0  0  0  0  0  0  0  0
   -8.1673    3.8702    0.0000 C   0  0  0  0  0  0  0  0  0  0  0  0
   -8.5210    2.4125    0.0000 C   0  0  0  0  0  0  0  0  0  0  0  0
   -9.9602    1.9899    0.0000 O   0  0  0  0  0  0  0  0  0  0  0  0
  -10.3139    0.5322    0.0000 C   0  0  0  0  0  0  0  0  0  0  0  0
   -9.2283   -0.5029    0.0000 O   0  0  0  0  0  0  0  0  0  0  0  0
  -11.7531    0.1096    0.0000 C   0  0  0  0  0  0  0  0  0  0  0  0
  -12.8387    1.1447    0.0000 C   0  0  0  0  0  0  0  0  0  0  0  0
  -14.2779    0.7221    0.0000 C   0  0  0  0  0  0  0  0  0  0  0  0
  -15.3635    1.7572    0.0000 O   0  0  0  0  0  0  0  0  0  0  0  0
  -15.0099    3.2149    0.0000 C   0  0  0  0  0  0  0  0  0  0  0  0
  -16.0955    4.2501    0.0000 C   0  0  0  0  0  0  0  0  0  0  0  0
  -15.7419    5.7078    0.0000 C   0  0  0  0  0  0  0  0  0  0  0  0
  -16.8275    6.7429    0.0000 C   0  0  0  0  0  0  0  0  0  0  0  0
  -18.2667    6.3203    0.0000 C   0  0  0  0  0  0  0  0  0  0  0  0
  -18.6203    4.8626    0.0000 C   0  0  0  0  0  0  0  0  0  0  0  0
  -17.5347    3.8275    0.0000 C   0  0  0  0  0  0  0  0  0  0  0  0
  -14.6316   -0.7356    0.0000 C   0  0  0  0  0  0  0  0  0  0  0  0
  -16.0708   -1.1582    0.0000 O   0  0  0  0  0  0  0  0  0  0  0  0
  -16.4245   -2.6159    0.0000 C   0  0  0  0  0  0  0  0  0  0  0  0
  -17.8637   -3.0385    0.0000 C   0  0  0  0  0  0  0  0  0  0  0  0
  -18.9493   -2.0034    0.0000 C   0  0  0  0  0  0  0  0  0  0  0  0
  -20.3885   -2.4260    0.0000 C   0  0  0  0  0  0  0  0  0  0  0  0
  -20.7422   -3.8837    0.0000 C   0  0  0  0  0  0  0  0  0  0  0  0
  -19.6566   -4.9188    0.0000 C   0  0  0  0  0  0  0  0  0  0  0  0
  -18.2173   -4.4962    0.0000 C   0  0  0  0  0  0  0  0  0  0  0  0
  -13.5460   -1.7707    0.0000 C   0  0  0  0  0  0  0  0  0  0  0  0
  -13.8996   -3.2284    0.0000 O   0  0  0  0  0  0  0  0  0  0  0  0
  -12.8140   -4.2636    0.0000 C   0  0  0  0  0  0  0  0  0  0  0  0
  -13.1677   -5.7213    0.0000 C   0  0  0  0  0  0  0  0  0  0  0  0
  -14.6069   -6.1439    0.0000 C   0  0  0  0  0  0  0  0  0  0  0  0
  -14.9605   -7.6016    0.0000 C   0  0  0  0  0  0  0  0  0  0  0  0
  -13.8749   -8.6367    0.0000 C   0  0  0  0  0  0  0  0  0  0  0  0
  -12.4357   -8.2141    0.0000 C   0  0  0  0  0  0  0  0  0  0  0  0
  -12.0821   -6.7564    0.0000 C   0  0  0  0  0  0  0  0  0  0  0  0
  -12.1067   -1.3481    0.0000 C   0  0  0  0  0  0  0  0  0  0  0  0
   -7.4354    1.3774    0.0000 O   0  0  0  0  0  0  0  0  0  0  0  0
   -5.9961    1.8000    0.0000 C   0  0  0  0  0  0  0  0  0  0  0  0
   -5.5055    0.3825    0.0000 C   0  0  0  0  0  0  0  0  0  0  0  0
   -4.3265   -0.5448    0.0000 O   0  0  0  0  0  0  0  0  0  0  0  0
   -2.8333   -0.6873    0.0000 C   0  0  0  0  0  0  0  0  0  0  0  0
   -2.5494   -2.1602    0.0000 O   0  0  0  0  0  0  0  0  0  0  0  0
  1  2  1  0
  2  3  1  0
  3  4  1  0
  4  5  1  0
  5  6  1  0
  6  7  1  0
  7  8  1  0
  8  9  1  0
  9 10  2  0
 10 11  1  0
 11 12  2  0
 12 13  1  0
 13 14  2  0
  6 15  2  0
 15 16  1  0
 16 17  2  0
 17 18  1  0
 18 19  1  0
 19 20  1  0
 20 21  1  0
 21 22  2  0
 22 23  1  0
 23 24  2  0
 24 25  1  0
 25 26  2  0
 17 27  1  0
 27 28  2  0
 28 29  1  0
 29 30  2  0
 30 31  1  0
 31 32  1  0
 32 33  1  0
 33 34  2  0
 34 35  1  0
 35 36  2  0
 36 37  1  0
 37 38  2  0
 30 39  1  0
 39 40  1  0
 40 41  1  0
 41 42  1  0
 42 43  2  0
 43 44  1  0
 44 45  2  0
 45 46  1  0
 46 47  2  0
 39 48  2  0
 48 49  1  0
 49 50  1  0
 50 51  1  0
 51 52  2  0
 52 53  1  0
 53 54  2  0
 54 55  1  0
 55 56  2  0
 28 57  1  0
 57 58  2  0
 57 59  1  0
 60 59  1  6
 60 61  1  0
 61 62  1  1
 62 63  1  0
 63 64  2  0
 63 65  1  0
 65 66  1  0
 66 67  2  0
 67 68  1  0
 68 69  1  0
 69 70  1  0
 70 71  2  0
 71 72  1  0
 72 73  2  0
 73 74  1  0
 74 75  2  0
 67 76  1  0
 76 77  1  0
 77 78  1  0
 78 79  1  0
 79 80  2  0
 80 81  1  0
 81 82  2  0
 82 83  1  0
 83 84  2  0
 76 85  2  0
 85 86  1  0
 86 87  1  0
 87 88  1  0
 88 89  2  0
 89 90  1  0
 90 91  2  0
 91 92  1  0
 92 93  2  0
 85 94  1  0
 94 95  1  0
 95 96  2  0
 96 97  1  0
 97 98  2  0
 98 99  1  0
 99100  1  0
100101  1  0
101102  2  0
102103  1  0
103104  2  0
104105  1  0
105106  2  0
 98107  1  0
107108  1  0
108109  1  0
109110  1  0
110111  2  0
111112  1  0
112113  2  0
113114  1  0
114115  2  0
107116  2  0
116117  1  0
117118  1  0
118119  1  0
119120  2  0
120121  1  0
121122  2  0
122123  1  0
123124  2  0
 96125  1  0
125126  2  0
125127  1  0
128127  1  6
128129  1  0
129130  1  1
130131  1  0
131132  2  0
131133  1  0
133134  2  0
134135  1  0
135136  1  0
136137  1  0
137138  1  0
138139  2  0
139140  1  0
140141  2  0
141142  1  0
142143  2  0
135144  2  0
144145  1  0
145146  1  0
146147  1  0
147148  2  0
148149  1  0
149150  2  0
150151  1  0
151152  2  0
144153  1  0
153154  1  0
154155  1  0
155156  1  0
156157  2  0
157158  1  0
158159  2  0
159160  1  0
160161  2  0
153162  2  0
129163  1  0
163164  1  0
164165  1  1
165166  1  0
166167  1  0
167168  2  0
 18  5  2  0
 26 21  1  0
 48 27  1  0
 56 51  1  0
164 60  1  0
 14  9  1  0
167 16  1  0
 38 33  1  0
 47 42  1  0
128 61  1  0
162133  1  0
 94 65  2  0
116 95  1  0
124119  1  0
143138  1  0
152147  1  0
161156  1  0
 75 70  1  0
 84 79  1  0
 93 88  1  0
106101  1  0
115110  1  0
M  END
$$$$
31
     RDKit          2D

165186  0  0  0  0  0  0  0  0999 V2000
    3.7500   -1.2990    0.0000 O   0  0  0  0  0  0  0  0  0  0  0  0
    3.0000   -2.5981    0.0000 C   0  0  0  0  0  0  0  0  0  0  0  0
    1.5000   -2.5981    0.0000 O   0  0  0  0  0  0  0  0  0  0  0  0
    0.7500   -1.2990    0.0000 C   0  0  0  0  0  0  0  0  0  0  0  0
    1.5000    0.0000    0.0000 O   0  0  0  0  0  0  0  0  0  0  0  0
    0.7500    1.2990    0.0000 C   0  0  0  0  0  0  0  0  0  0  0  0
    2.0119    2.1100    0.0000 C   0  0  0  0  0  0  0  0  0  0  0  0
    2.6350    3.4744    0.0000 O   0  0  0  0  0  0  0  0  0  0  0  0
    2.4215    4.9592    0.0000 C   0  0  0  0  0  0  0  0  0  0  0  0
    3.7860    5.5823    0.0000 O   0  0  0  0  0  0  0  0  0  0  0  0
    1.4392    6.0928    0.0000 C   0  0  0  0  0  0  0  0  0  0  0  0
    2.5248    7.1279    0.0000 C   0  0  0  0  0  0  0  0  0  0  0  0
    2.1712    8.5856    0.0000 C   0  0  0  0  0  0  0  0  0  0  0  0
    3.2568    9.6208    0.0000 O   0  0  0  0  0  0  0  0  0  0  0  0
    4.6960    9.1982    0.0000 C   0  0  0  0  0  0  0  0  0  0  0  0
    5.7816   10.2333    0.0000 C   0  0  0  0  0  0  0  0  0  0  0  0
    7.2209    9.8107    0.0000 C   0  0  0  0  0  0  0  0  0  0  0  0
    8.3065   10.8458    0.0000 C   0  0  0  0  0  0  0  0  0  0  0  0
    7.9528   12.3035    0.0000 C   0  0  0  0  0  0  0  0  0  0  0  0
    6.5136   12.7261    0.0000 C   0  0  0  0  0  0  0  0  0  0  0  0
    5.4280   11.6910    0.0000 C   0  0  0  0  0  0  0  0  0  0  0  0
    0.7320    9.0082    0.0000 C   0  0  0  0  0  0  0  0  0  0  0  0
    0.7416   10.5082    0.0000 O   0  0  0  0  0  0  0  0  0  0  0  0
   -0.3536    7.9731    0.0000 C   0  0  0  0  0  0  0  0  0  0  0  0
   -1.7929    8.3957    0.0000 O   0  0  0  0  0  0  0  0  0  0  0  0
   -2.1465    9.8534    0.0000 C   0  0  0  0  0  0  0  0  0  0  0  0
   -3.5858   10.2760    0.0000 C   0  0  0  0  0  0  0  0  0  0  0  0
   -4.6714    9.2409    0.0000 C   0  0  0  0  0  0  0  0  0  0  0  0
   -6.1106    9.6635    0.0000 C   0  0  0  0  0  0  0  0  0  0  0  0
   -6.4642   11.1212    0.0000 C   0  0  0  0  0  0  0  0  0  0  0  0
   -5.3786   12.1564    0.0000 C   0  0  0  0  0  0  0  0  0  0  0  0
   -3.9394   11.7338    0.0000 C   0  0  0  0  0  0  0  0  0  0  0  0
   -0.0000    6.5154    0.0000 C   0  0  0  0  0  0  0  0  0  0  0  0
   -1.4392    6.0928    0.0000 C   0  0  0  0  0  0  0  0  0  0  0  0
   -2.4215    4.9592    0.0000 C   0  0  0  0  0  0  0  0  0  0  0  0
   -3.8944    5.2431    0.0000 C   0  0  0  0  0  0  0  0  0  0  0  0
   -4.3850    6.6606    0.0000 C   0  0  0  0  0  0  0  0  0  0  0  0
   -5.8579    6.9444    0.0000 O   0  0  0  0  0  0  0  0  0  0  0  0
   -6.3485    8.3619    0.0000 C   0  0  0  0  0  0  0  0  0  0  0  0
   -7.8214    8.6458    0.0000 C   0  0  0  0  0  0  0  0  0  0  0  0
   -8.3120   10.0633    0.0000 C   0  0  0  0  0  0  0  0  0  0  0  0
   -9.7849   10.3472    0.0000 C   0  0  0  0  0  0  0  0  0  0  0  0
  -10.7672    9.2136    0.0000 C   0  0  0  0  0  0  0  0  0  0  0  0
  -10.2766    7.7961    0.0000 C   0  0  0  0  0  0  0  0  0  0  0  0
   -8.8037    7.5122    0.0000 C   0  0  0  0  0  0  0  0  0  0  0  0
   -3.4027    7.7942    0.0000 C   0  0  0  0  0  0  0  0  0  0  0  0
   -3.8933    9.2117    0.0000 O   0  0  0  0  0  0  0  0  0  0  0  0
   -5.3662    9.4956    0.0000 C   0  0  0  0  0  0  0  0  0  0  0  0
   -5.8568   10.9131    0.0000 C   0  0  0  0  0  0  0  0  0  0  0  0
   -4.8745   12.0467    0.0000 C   0  0  0  0  0  0  0  0  0  0  0  0
   -5.3651   13.4642    0.0000 C   0  0  0  0  0  0  0  0  0  0  0  0
   -6.8380   13.7481    0.0000 C   0  0  0  0  0  0  0  0  0  0  0  0
   -7.8203   12.6144    0.0000 C   0  0  0  0  0  0  0  0  0  0  0  0
   -7.3297   11.1969    0.0000 C   0  0  0  0  0  0  0  0  0  0  0  0
   -1.9298    7.5103    0.0000 C   0  0  0  0  0  0  0  0  0  0  0  0
   -0.9476    8.6439    0.0000 O   0  0  0  0  0  0  0  0  0  0  0  0
   -1.4382   10.0614    0.0000 C   0  0  0  0  0  0  0  0  0  0  0  0
   -0.4559   11.1951    0.0000 C   0  0  0  0  0  0  0  0  0  0  0  0
    1.0170   10.9112    0.0000 C   0  0  0  0  0  0  0  0  0  0  0  0
    1.9993   12.0448    0.0000 C   0  0  0  0  0  0  0  0  0  0  0  0
    1.5087   13.4623    0.0000 C   0  0  0  0  0  0  0  0  0  0  0  0
    0.0358   13.7462    0.0000 C   0  0  0  0  0  0  0  0  0  0  0  0
   -0.9465   12.6126    0.0000 C   0  0  0  0  0  0  0  0  0  0  0  0
   -2.6350    3.4744    0.0000 C   0  0  0  0  0  0  0  0  0  0  0  0
   -4.1197    3.2610    0.0000 O   0  0  0  0  0  0  0  0  0  0  0  0
   -2.0119    2.1100    0.0000 O   0  0  0  0  0  0  0  0  0  0  0  0
   -0.7500    1.2990    0.0000 C   0  0  0  0  0  0  0  0  0  0  0  0
   -1.5000    0.0000    0.0000 C   0  0  0  0  0  0  0  0  0  0  0  0
   -2.8703    0.6101    0.0000 O   0  0  0  0  0  0  0  0  0  0  0  0
   -4.3375    0.2982    0.0000 C   0  0  0  0  0  0  0  0  0  0  0  0
   -5.0875    1.5973    0.0000 O   0  0  0  0  0  0  0  0  0  0  0  0
   -5.3412   -0.8165    0.0000 C   0  0  0  0  0  0  0  0  0  0  0  0
   -6.5548    0.0652    0.0000 C   0  0  0  0  0  0  0  0  0  0  0  0
   -7.9251   -0.5449    0.0000 C   0  0  0  0  0  0  0  0  0  0  0  0
   -9.1386    0.3368    0.0000 O   0  0  0  0  0  0  0  0  0  0  0  0
   -8.9818    1.8286    0.0000 C   0  0  0  0  0  0  0  0  0  0  0  0
  -10.1953    2.7102    0.0000 C   0  0  0  0  0  0  0  0  0  0  0  0
  -10.0385    4.2020    0.0000 C   0  0  0  0  0  0  0  0  0  0  0  0
  -11.2521    5.0837    0.0000 C   0  0  0  0  0  0  0  0  0  0  0  0
  -12.6224    4.4736    0.0000 C   0  0  0  0  0  0  0  0  0  0  0  0
  -12.7792    2.9818    0.0000 C   0  0  0  0  0  0  0  0  0  0  0  0
  -11.5657    2.1001    0.0000 C   0  0  0  0  0  0  0  0  0  0  0  0
   -8.0819   -2.0367    0.0000 C   0  0  0  0  0  0  0  0  0  0  0  0
   -9.4522   -2.6468    0.0000 O   0  0  0  0  0  0  0  0  0  0  0  0
  -10.6657   -1.7651    0.0000 C   0  0  0  0  0  0  0  0  0  0  0  0
  -12.0360   -2.3752    0.0000 C   0  0  0  0  0  0  0  0  0  0  0  0
  -13.2496   -1.4935    0.0000 C   0  0  0  0  0  0  0  0  0  0  0  0
  -14.6199   -2.1036    0.0000 C   0  0  0  0  0  0  0  0  0  0  0  0
  -14.7767   -3.5954    0.0000 C   0  0  0  0  0  0  0  0  0  0  0  0
  -13.5631   -4.4771    0.0000 C   0  0  0  0  0  0  0  0  0  0  0  0
  -12.1928   -3.8670    0.0000 C   0  0  0  0  0  0  0  0  0  0  0  0
   -6.8683   -2.9184    0.0000 C   0  0  0  0  0  0  0  0  0  0  0  0
   -7.0251   -4.4102    0.0000 O   0  0  0  0  0  0  0  0  0  0  0  0
   -8.3955   -5.0203    0.0000 C   0  0  0  0  0  0  0  0  0  0  0  0
   -8.5522   -6.5120    0.0000 C   0  0  0  0  0  0  0  0  0  0  0  0
   -9.9226   -7.1221    0.0000 C   0  0  0  0  0  0  0  0  0  0  0  0
  -10.0794   -8.6139    0.0000 C   0  0  0  0  0  0  0  0  0  0  0  0
   -8.8658   -9.4956    0.0000 C   0  0  0  0  0  0  0  0  0  0  0  0
   -7.4955   -8.8855    0.0000 C   0  0  0  0  0  0  0  0  0  0  0  0
   -7.3387   -7.3937    0.0000 C   0  0  0  0  0  0  0  0  0  0  0  0
   -5.4980   -2.3083    0.0000 C   0  0  0  0  0  0  0  0  0  0  0  0
   -4.7480   -3.6073    0.0000 C   0  0  0  0  0  0  0  0  0  0  0  0
   -3.3777   -4.2174    0.0000 C   0  0  0  0  0  0  0  0  0  0  0  0
   -3.2209   -5.7092    0.0000 C   0  0  0  0  0  0  0  0  0  0  0  0
   -4.4344   -6.5909    0.0000 C   0  0  0  0  0  0  0  0  0  0  0  0
   -4.2777   -8.0826    0.0000 O   0  0  0  0  0  0  0  0  0  0  0  0
   -5.4912   -8.9643    0.0000 C   0  0  0  0  0  0  0  0  0  0  0  0
   -5.3344  -10.4561    0.0000 C   0  0  0  0  0  0  0  0  0  0  0  0
   -6.5479  -11.3378    0.0000 C   0  0  0  0  0  0  0  0  0  0  0  0
   -6.3911  -12.8296    0.0000 C   0  0  0  0  0  0  0  0  0  0  0  0
   -5.0208  -13.4397    0.0000 C   0  0  0  0  0  0  0  0  0  0  0  0
   -3.8073  -12.5580    0.0000 C   0  0  0  0  0  0  0  0  0  0  0  0
   -3.9641  -11.0662    0.0000 C   0  0  0  0  0  0  0  0  0  0  0  0
   -5.8048   -5.9808    0.0000 C   0  0  0  0  0  0  0  0  0  0  0  0
   -7.0183   -6.8624    0.0000 O   0  0  0  0  0  0  0  0  0  0  0  0
   -6.8615   -8.3542    0.0000 C   0  0  0  0  0  0  0  0  0  0  0  0
   -8.0750   -9.2359    0.0000 C   0  0  0  0  0  0  0  0  0  0  0  0
   -9.4453   -8.6258    0.0000 C   0  0  0  0  0  0  0  0  0  0  0  0
  -10.6589   -9.5075    0.0000 C   0  0  0  0  0  0  0  0  0  0  0  0
  -10.5021  -10.9993    0.0000 C   0  0  0  0  0  0  0  0  0  0  0  0
   -9.1318  -11.6094    0.0000 C   0  0  0  0  0  0  0  0  0  0  0  0
   -7.9182  -10.7277    0.0000 C   0  0  0  0  0  0  0  0  0  0  0  0
   -5.9616   -4.4890    0.0000 C   0  0  0  0  0  0  0  0  0  0  0  0
   -7.3319   -3.8789    0.0000 O   0  0  0  0  0  0  0  0  0  0  0  0
   -8.5454   -4.7606    0.0000 C   0  0  0  0  0  0  0  0  0  0  0  0
   -9.9157   -4.1504    0.0000 C   0  0  0  0  0  0  0  0  0  0  0  0
  -10.0725   -2.6587    0.0000 C   0  0  0  0  0  0  0  0  0  0  0  0
  -11.4428   -2.0486    0.0000 C   0  0  0  0  0  0  0  0  0  0  0  0
  -12.6564   -2.9302    0.0000 C   0  0  0  0  0  0  0  0  0  0  0  0
  -12.4996   -4.4220    0.0000 C   0  0  0  0  0  0  0  0  0  0  0  0
  -11.1292   -5.0321    0.0000 C   0  0  0  0  0  0  0  0  0  0  0  0
   -1.9105   -3.9055    0.0000 C   0  0  0  0  0  0  0  0  0  0  0  0
   -1.1605   -5.2046    0.0000 O   0  0  0  0  0  0  0  0  0  0  0  0
   -0.9068   -2.7908    0.0000 O   0  0  0  0  0  0  0  0  0  0  0  0
   -0.7500   -1.2990    0.0000 C   0  0  0  0  0  0  0  0  0  0  0  0
    3.7500   -3.8971    0.0000 C   0  0  0  0  0  0  0  0  0  0  0  0
    3.0000   -5.1962    0.0000 C   0  0  0  0  0  0  0  0  0  0  0  0
    3.7500   -6.4952    0.0000 C   0  0  0  0  0  0  0  0  0  0  0  0
    3.0000   -7.7942    0.0000 O   0  0  0  0  0  0  0  0  0  0  0  0
    1.5000   -7.7942    0.0000 C   0  0  0  0  0  0  0  0  0  0  0  0
    0.7500   -9.0933    0.0000 C   0  0  0  0  0  0  0  0  0  0  0  0
   -0.7500   -9.0933    0.0000 C   0  0  0  0  0  0  0  0  0  0  0  0
   -1.5000  -10.3923    0.0000 C   0  0  0  0  0  0  0  0  0  0  0  0
   -0.7500  -11.6913    0.0000 C   0  0  0  0  0  0  0  0  0  0  0  0
    0.7500  -11.6913    0.0000 C   0  0  0  0  0  0  0  0  0  0  0  0
    1.5000  -10.3923    0.0000 C   0  0  0  0  0  0  0  0  0  0  0  0
    5.2500   -6.4952    0.0000 C   0  0  0  0  0  0  0  0  0  0  0  0
    6.0000   -7.7942    0.0000 O   0  0  0  0  0  0  0  0  0  0  0  0
    7.5000   -7.7942    0.0000 C   0  0  0  0  0  0  0  0  0  0  0  0
    8.2500   -9.0933    0.0000 C   0  0  0  0  0  0  0  0  0  0  0  0
    7.5000  -10.3923    0.0000 C   0  0  0  0  0  0  0  0  0  0  0  0
    8.2500  -11.6913    0.0000 C   0  0  0  0  0  0  0  0  0  0  0  0
    9.7500  -11.6913    0.0000 C   0  0  0  0  0  0  0  0  0  0  0  0
   10.5000  -10.3923    0.0000 C   0  0  0  0  0  0  0  0  0  0  0  0
    9.7500   -9.0933    0.0000 C   0  0  0  0  0  0  0  0  0  0  0  0
    6.0000   -5.1962    0.0000 C   0  0  0  0  0  0  0  0  0  0  0  0
    7.5000   -5.1962    0.0000 O   0  0  0  0  0  0  0  0  0  0  0  0
    8.2500   -3.8971    0.0000 C   0  0  0  0  0  0  0  0  0  0  0  0
    9.7500   -3.8971    0.0000 C   0  0  0  0  0  0  0  0  0  0  0  0
   10.5000   -5.1962    0.0000 C   0  0  0  0  0  0  0  0  0  0  0  0
   12.0000   -5.1962    0.0000 C   0  0  0  0  0  0  0  0  0  0  0  0
   12.7500   -3.8971    0.0000 C   0  0  0  0  0  0  0  0  0  0  0  0
   12.0000   -2.5981    0.0000 C   0  0  0  0  0  0  0  0  0  0  0  0
   10.5000   -2.5981    0.0000 C   0  0  0  0  0  0  0  0  0  0  0  0
    5.2500   -3.8971    0.0000 C   0  0  0  0  0  0  0  0  0  0  0  0
  1  2  2  0
  2  3  1  0
  4  3  1  1
  4  5  1  0
  5  6  1  0
  6  7  1  1
  7  8  1  0
  8  9  1  0
  9 10  2  0
  9 11  1  0
 11 12  1  0
 12 13  2  0
 13 14  1  0
 14 15  1  0
 15 16  1  0
 16 17  2  0
 17 18  1  0
 18 19  2  0
 19 20  1  0
 20 21  2  0
 13 22  1  0
 22 23  1  0
 22 24  2  0
 24 25  1  0
 25 26  1  0
 26 27  1  0
 27 28  2  0
 28 29  1  0
 29 30  2  0
 30 31  1  0
 31 32  2  0
 24 33  1  0
 33 34  1  0
 34 35  2  0
 35 36  1  0
 36 37  2  0
 37 38  1  0
 38 39  1  0
 39 40  1  0
 40 41  2  0
 41 42  1  0
 42 43  2  0
 43 44  1  0
 44 45  2  0
 37 46  1  0
 46 47  1  0
 47 48  1  0
 48 49  1  0
 49 50  2  0
 50 51  1  0
 51 52  2  0
 52 53  1  0
 53 54  2  0
 46 55  2  0
 55 56  1  0
 56 57  1  0
 57 58  1  0
 58 59  2  0
 59 60  1  0
 60 61  2  0
 61 62  1  0
 62 63  2  0
 35 64  1  0
 64 65  2  0
 64 66  1  0
 67 66  1  6
 67 68  1  0
 68 69  1  1
 69 70  1  0
 70 71  2  0
 70 72  1  0
 72 73  1  0
 73 74  2  0
 74 75  1  0
 75 76  1  0
 76 77  1  0
 77 78  2  0
 78 79  1  0
 79 80  2  0
 80 81  1  0
 81 82  2  0
 74 83  1  0
 83 84  1  0
 84 85  1  0
 85 86  1  0
 86 87  2  0
 87 88  1  0
 88 89  2  0
 89 90  1  0
 90 91  2  0
 83 92  2  0
 92 93  1  0
 93 94  1  0
 94 95  1  0
 95 96  2  0
 96 97  1  0
 97 98  2  0
 98 99  1  0
 99100  2  0
 92101  1  0
101102  1  0
102103  2  0
103104  1  0
104105  2  0
105106  1  0
106107  1  0
107108  1  0
108109  2  0
109110  1  0
110111  2  0
111112  1  0
112113  2  0
105114  1  0
114115  1  0
115116  1  0
116117  1  0
117118  2  0
118119  1  0
119120  2  0
120121  1  0
121122  2  0
114123  2  0
123124  1  0
124125  1  0
125126  1  0
126127  2  0
127128  1  0
128129  2  0
129130  1  0
130131  2  0
103132  1  0
132133  2  0
132134  1  0
135134  1  6
  2136  1  0
136137  2  0
137138  1  0
138139  1  0
139140  1  0
140141  1  0
141142  2  0
142143  1  0
143144  2  0
144145  1  0
145146  2  0
138147  2  0
147148  1  0
148149  1  0
149150  1  0
150151  2  0
151152  1  0
152153  2  0
153154  1  0
154155  2  0
147156  1  0
156157  1  0
157158  1  0
158159  1  0
159160  2  0
160161  1  0
161162  2  0
162163  1  0
163164  2  0
156165  2  0
135  4  1  0
165136  1  0
 67  6  1  0
135 68  1  0
146141  1  0
155150  1  0
164159  1  0
 33 11  2  0
 55 34  1  0
 63 58  1  0
101 72  2  0
123102  1  0
131126  1  0
 21 16  1  0
 32 27  1  0
 45 40  1  0
 54 49  1  0
 82 77  1  0
 91 86  1  0
100 95  1  0
113108  1  0
122117  1  0
M  END
$$$$
38
     RDKit          2D

 67 74  0  0  0  0  0  0  0  0999 V2000
    3.7500   -1.2990    0.0000 O   0  0  0  0  0  0  0  0  0  0  0  0
    3.0000   -2.5981    0.0000 C   0  0  0  0  0  0  0  0  0  0  0  0
    1.5000   -2.5981    0.0000 O   0  0  0  0  0  0  0  0  0  0  0  0
    0.7500   -1.2990    0.0000 C   0  0  0  0  0  0  0  0  0  0  0  0
    1.5000    0.0000    0.0000 O   0  0  0  0  0  0  0  0  0  0  0  0
    0.7500    1.2990    0.0000 C   0  0  0  0  0  0  0  0  0  0  0  0
    2.0119    2.1100    0.0000 C   0  0  0  0  0  0  0  0  0  0  0  0
    2.6350    3.4744    0.0000 O   0  0  0  0  0  0  0  0  0  0  0  0
    2.4215    4.9592    0.0000 C   0  0  0  0  0  0  0  0  0  0  0  0
    3.7860    5.5823    0.0000 O   0  0  0  0  0  0  0  0  0  0  0  0
    1.4392    6.0928    0.0000 C   0  0  0  0  0  0  0  0  0  0  0  0
    2.5248    7.1279    0.0000 C   0  0  0  0  0  0  0  0  0  0  0  0
    2.1712    8.5856    0.0000 C   0  0  0  0  0  0  0  0  0  0  0  0
    3.2568    9.6208    0.0000 O   0  0  0  0  0  0  0  0  0  0  0  0
    0.7320    9.0082    0.0000 C   0  0  0  0  0  0  0  0  0  0  0  0
    0.3783   10.4660    0.0000 O   0  0  0  0  0  0  0  0  0  0  0  0
   -0.3536    7.9731    0.0000 C   0  0  0  0  0  0  0  0  0  0  0  0
   -1.0854    8.2893    0.0000 O   0  0  0  0  0  0  0  0  0  0  0  0
   -0.0000    6.5154    0.0000 C   0  0  0  0  0  0  0  0  0  0  0  0
   -1.4392    6.0928    0.0000 C   0  0  0  0  0  0  0  0  0  0  0  0
   -2.4215    4.9592    0.0000 C   0  0  0  0  0  0  0  0  0  0  0  0
   -3.8944    5.2431    0.0000 C   0  0  0  0  0  0  0  0  0  0  0  0
   -4.3850    6.6606    0.0000 C   0  0  0  0  0  0  0  0  0  0  0  0
   -5.8579    6.9444    0.0000 O   0  0  0  0  0  0  0  0  0  0  0  0
   -3.4027    7.7942    0.0000 C   0  0  0  0  0  0  0  0  0  0  0  0
   -3.8933    9.2117    0.0000 O   0  0  0  0  0  0  0  0  0  0  0  0
   -1.9298    7.5103    0.0000 C   0  0  0  0  0  0  0  0  0  0  0  0
   -1.4851    8.1719    0.0000 O   0  0  0  0  0  0  0  0  0  0  0  0
   -2.6350    3.4744    0.0000 C   0  0  0  0  0  0  0  0  0  0  0  0
   -4.1197    3.2610    0.0000 O   0  0  0  0  0  0  0  0  0  0  0  0
   -2.0119    2.1100    0.0000 O   0  0  0  0  0  0  0  0  0  0  0  0
   -0.7500    1.2990    0.0000 C   0  0  0  0  0  0  0  0  0  0  0  0
   -1.5000    0.0000    0.0000 C   0  0  0  0  0  0  0  0  0  0  0  0
   -2.8703    0.6101    0.0000 O   0  0  0  0  0  0  0  0  0  0  0  0
   -4.3375    0.2982    0.0000 C   0  0  0  0  0  0  0  0  0  0  0  0
   -5.0875    1.5973    0.0000 O   0  0  0  0  0  0  0  0  0  0  0  0
   -5.3412   -0.8165    0.0000 C   0  0  0  0  0  0  0  0  0  0  0  0
   -6.5548    0.0652    0.0000 C   0  0  0  0  0  0  0  0  0  0  0  0
   -7.9251   -0.5449    0.0000 C   0  0  0  0  0  0  0  0  0  0  0  0
   -9.1386    0.3368    0.0000 O   0  0  0  0  0  0  0  0  0  0  0  0
   -8.0819   -2.0367    0.0000 C   0  0  0  0  0  0  0  0  0  0  0  0
   -9.4522   -2.6468    0.0000 O   0  0  0  0  0  0  0  0  0  0  0  0
   -6.8683   -2.9184    0.0000 C   0  0  0  0  0  0  0  0  0  0  0  0
   -7.2058   -4.3799    0.0000 O   0  0  0  0  0  0  0  0  0  0  0  0
   -5.4980   -2.3083    0.0000 C   0  0  0  0  0  0  0  0  0  0  0  0
   -4.7480   -3.6073    0.0000 C   0  0  0  0  0  0  0  0  0  0  0  0
   -3.3777   -4.2174    0.0000 C   0  0  0  0  0  0  0  0  0  0  0  0
   -3.2209   -5.7092    0.0000 C   0  0  0  0  0  0  0  0  0  0  0  0
   -4.4344   -6.5909    0.0000 C   0  0  0  0  0  0  0  0  0  0  0  0
   -4.2777   -8.0826    0.0000 O   0  0  0  0  0  0  0  0  0  0  0  0
   -5.8048   -5.9808    0.0000 C   0  0  0  0  0  0  0  0  0  0  0  0
   -7.0183   -6.8624    0.0000 O   0  0  0  0  0  0  0  0  0  0  0  0
   -5.9616   -4.4890    0.0000 C   0  0  0  0  0  0  0  0  0  0  0  0
   -7.3960   -4.0505    0.0000 O   0  0  0  0  0  0  0  0  0  0  0  0
   -1.9105   -3.9055    0.0000 C   0  0  0  0  0  0  0  0  0  0  0  0
   -1.1605   -5.2046    0.0000 O   0  0  0  0  0  0  0  0  0  0  0  0
   -0.9068   -2.7908    0.0000 O   0  0  0  0  0  0  0  0  0  0  0  0
   -0.7500   -1.2990    0.0000 C   0  0  0  0  0  0  0  0  0  0  0  0
    3.7500   -3.8971    0.0000 C   0  0  0  0  0  0  0  0  0  0  0  0
    3.0000   -5.1962    0.0000 C   0  0  0  0  0  0  0  0  0  0  0  0
    3.7500   -6.4952    0.0000 C   0  0  0  0  0  0  0  0  0  0  0  0
    3.0000   -7.7942    0.0000 O   0  0  0  0  0  0  0  0  0  0  0  0
    5.2500   -6.4952    0.0000 C   0  0  0  0  0  0  0  0  0  0  0  0
    6.0000   -7.7942    0.0000 O   0  0  0  0  0  0  0  0  0  0  0  0
    6.0000   -5.1962    0.0000 C   0  0  0  0  0  0  0  0  0  0  0  0
    7.5000   -5.1962    0.0000 O   0  0  0  0  0  0  0  0  0  0  0  0
    5.2500   -3.8971    0.0000 C   0  0  0  0  0  0  0  0  0  0  0  0
  1  2  2  0
  2  3  1  0
  4  3  1  1
  4  5  1  0
  5  6  1  0
  6  7  1  1
  7  8  1  0
  8  9  1  0
  9 10  2  0
  9 11  1  0
 11 12  1  0
 12 13  2  0
 13 14  1  0
 13 15  1  0
 15 16  1  0
 15 17  2  0
 17 18  1  0
 17 19  1  0
 19 20  1  0
 20 21  2  0
 21 22  1  0
 22 23  2  0
 23 24  1  0
 23 25  1  0
 25 26  1  0
 25 27  2  0
 27 28  1  0
 21 29  1  0
 29 30  2  0
 29 31  1  0
 32 31  1  6
 32 33  1  0
 33 34  1  1
 34 35  1  0
 35 36  2  0
 35 37  1  0
 37 38  1  0
 38 39  2  0
 39 40  1  0
 39 41  1  0
 41 42  1  0
 41 43  2  0
 43 44  1  0
 43 45  1  0
 45 46  1  0
 46 47  2  0
 47 48  1  0
 48 49  2  0
 49 50  1  0
 49 51  1  0
 51 52  1  0
 51 53  2  0
 53 54  1  0
 47 55  1  0
 55 56  2  0
 55 57  1  0
 58 57  1  6
  2 59  1  0
 59 60  2  0
 60 61  1  0
 61 62  1  0
 61 63  2  0
 63 64  1  0
 63 65  1  0
 65 66  1  0
 65 67  2  0
 58  4  1  0
 67 59  1  0
 32  6  1  0
 58 33  1  0
 19 11  2  0
 27 20  1  0
 45 37  2  0
 53 46  1  0
M  END
$$$$
32
     RDKit          2D

 42 46  0  0  0  0  0  0  0  0999 V2000
    3.0000   -5.1962    0.0000 O   0  0  0  0  0  0  0  0  0  0  0  0
    1.5000   -5.1962    0.0000 C   0  0  0  0  0  0  0  0  0  0  0  0
    0.7500   -3.8971    0.0000 O   0  0  0  0  0  0  0  0  0  0  0  0
    1.5000   -2.5981    0.0000 C   0  0  0  0  0  0  0  0  0  0  0  0
    0.7500   -1.2990    0.0000 C   0  0  0  0  0  0  0  0  0  0  0  0
    1.5000    0.0000    0.0000 C   0  0  0  0  0  0  0  0  0  0  0  0
    0.7500    1.2990    0.0000 C   0  0  0  0  0  0  0  0  0  0  0  0
   -0.7500    1.2990    0.0000 C   0  0  0  0  0  0  0  0  0  0  0  0
   -1.5000    0.0000    0.0000 C   0  0  0  0  0  0  0  0  0  0  0  0
   -0.7500   -1.2990    0.0000 C   0  0  0  0  0  0  0  0  0  0  0  0
    0.7500   -6.4952    0.0000 C   0  0  0  0  0  0  0  0  0  0  0  0
   -0.7500   -6.4952    0.0000 C   0  0  0  0  0  0  0  0  0  0  0  0
   -1.5000   -5.1962    0.0000 Br  0  0  0  0  0  0  0  0  0  0  0  0
   -1.5000   -7.7942    0.0000 C   0  0  0  0  0  0  0  0  0  0  0  0
   -2.6491   -8.7584    0.0000 O   0  0  0  0  0  0  0  0  0  0  0  0
   -4.0586   -8.2454    0.0000 C   0  0  0  0  0  0  0  0  0  0  0  0
   -5.2077   -9.2096    0.0000 C   0  0  0  0  0  0  0  0  0  0  0  0
   -6.6172   -8.6965    0.0000 C   0  0  0  0  0  0  0  0  0  0  0  0
   -7.7663   -9.6607    0.0000 C   0  0  0  0  0  0  0  0  0  0  0  0
   -7.5058  -11.1379    0.0000 C   0  0  0  0  0  0  0  0  0  0  0  0
   -6.0963  -11.6510    0.0000 C   0  0  0  0  0  0  0  0  0  0  0  0
   -4.9472  -10.6868    0.0000 C   0  0  0  0  0  0  0  0  0  0  0  0
   -2.6491   -6.8300    0.0000 O   0  0  0  0  0  0  0  0  0  0  0  0
   -4.0586   -7.3431    0.0000 C   0  0  0  0  0  0  0  0  0  0  0  0
   -5.2077   -6.3789    0.0000 C   0  0  0  0  0  0  0  0  0  0  0  0
   -4.9472   -4.9017    0.0000 C   0  0  0  0  0  0  0  0  0  0  0  0
   -6.0963   -3.9375    0.0000 C   0  0  0  0  0  0  0  0  0  0  0  0
   -7.5058   -4.4505    0.0000 C   0  0  0  0  0  0  0  0  0  0  0  0
   -7.7663   -5.9277    0.0000 C   0  0  0  0  0  0  0  0  0  0  0  0
   -6.6172   -6.8919    0.0000 C   0  0  0  0  0  0  0  0  0  0  0  0
   -0.7500   -9.0933    0.0000 C   0  0  0  0  0  0  0  0  0  0  0  0
   -1.5000  -10.3923    0.0000 O   0  0  0  0  0  0  0  0  0  0  0  0
    0.7500   -9.0933    0.0000 C   0  0  0  0  0  0  0  0  0  0  0  0
    1.5000  -10.3923    0.0000 O   0  0  0  0  0  0  0  0  0  0  0  0
    3.0000  -10.3923    0.0000 C   0  0  0  0  0  0  0  0  0  0  0  0
    3.7500  -11.6913    0.0000 C   0  0  0  0  0  0  0  0  0  0  0  0
    3.0000  -12.9904    0.0000 C   0  0  0  0  0  0  0  0  0  0  0  0
    3.7500  -14.2894    0.0000 C   0  0  0  0  0  0  0  0  0  0  0  0
    5.2500  -14.2894    0.0000 C   0  0  0  0  0  0  0  0  0  0  0  0
    6.0000  -12.9904    0.0000 C   0  0  0  0  0  0  0  0  0  0  0  0
    5.2500  -11.6913    0.0000 C   0  0  0  0  0  0  0  0  0  0  0  0
    1.5000   -7.7942    0.0000 C   0  0  0  0  0  0  0  0  0  0  0  0
  1  2  2  0
  2  3  1  0
  3  4  1  0
  4  5  1  0
  5  6  2  0
  6  7  1  0
  7  8  2  0
  8  9  1  0
  9 10  2  0
  2 11  1  0
 11 12  2  0
 12 13  1  0
 12 14  1  0
 14 15  1  0
 15 16  1  0
 16 17  1  0
 17 18  2  0
 18 19  1  0
 19 20  2  0
 20 21  1  0
 21 22  2  0
 14 23  1  0
 23 24  1  0
 24 25  1  0
 25 26  2  0
 26 27  1  0
 27 28  2  0
 28 29  1  0
 29 30  2  0
 14 31  1  0
 31 32  2  0
 31 33  1  0
 33 34  1  0
 34 35  1  0
 35 36  1  0
 36 37  2  0
 37 38  1  0
 38 39  2  0
 39 40  1  0
 40 41  2  0
 33 42  2  0
 10  5  1  0
 42 11  1  0
 22 17  1  0
 30 25  1  0
 41 36  1  0
M  END
$$$$
30
     RDKit          2D

206232  0  0  0  0  0  0  0  0999 V2000
    1.2803   -1.8318    0.0000 O   0  0  0  0  0  0  0  0  0  0  0  0
    1.5000   -2.5981    0.0000 C   0  0  0  0  0  0  0  0  0  0  0  0
    3.0000   -2.5981    0.0000 O   0  0  0  0  0  0  0  0  0  0  0  0
    3.7500   -1.2990    0.0000 C   0  0  0  0  0  0  0  0  0  0  0  0
    5.2500   -1.2990    0.0000 C   0  0  0  0  0  0  0  0  0  0  0  0
    6.0000   -2.5981    0.0000 C   0  0  0  0  0  0  0  0  0  0  0  0
    7.5000   -2.5981    0.0000 C   0  0  0  0  0  0  0  0  0  0  0  0
    8.2500   -1.2990    0.0000 C   0  0  0  0  0  0  0  0  0  0  0  0
    7.5000    0.0000    0.0000 C   0  0  0  0  0  0  0  0  0  0  0  0
    6.0000   -0.0000    0.0000 C   0  0  0  0  0  0  0  0  0  0  0  0
    0.7500   -3.8971    0.0000 C   0  0  0  0  0  0  0  0  0  0  0  0
   -0.7500   -3.8971    0.0000 C   0  0  0  0  0  0  0  0  0  0  0  0
   -1.5000   -2.5981    0.0000 O   0  0  0  0  0  0  0  0  0  0  0  0
   -0.7500   -1.2990    0.0000 C   0  0  0  0  0  0  0  0  0  0  0  0
    0.7500   -1.2990    0.0000 C   0  0  0  0  0  0  0  0  0  0  0  0
    1.5000   -2.5981    0.0000 O   0  0  0  0  0  0  0  0  0  0  0  0
    0.7500   -3.8971    0.0000 C   0  0  0  0  0  0  0  0  0  0  0  0
    1.5000   -5.1962    0.0000 C   0  0  0  0  0  0  0  0  0  0  0  0
    0.7500   -6.4952    0.0000 C   0  0  0  0  0  0  0  0  0  0  0  0
    1.5000   -7.7942    0.0000 C   0  0  0  0  0  0  0  0  0  0  0  0
    3.0000   -7.7942    0.0000 C   0  0  0  0  0  0  0  0  0  0  0  0
    3.7500   -6.4952    0.0000 C   0  0  0  0  0  0  0  0  0  0  0  0
    3.0000   -5.1962    0.0000 C   0  0  0  0  0  0  0  0  0  0  0  0
    1.5000    0.0000    0.0000 C   0  0  0  0  0  0  0  0  0  0  0  0
    0.7500    1.2990    0.0000 C   0  0  0  0  0  0  0  0  0  0  0  0
   -0.7500    1.2990    0.0000 C   0  0  0  0  0  0  0  0  0  0  0  0
   -1.5000    0.0000    0.0000 C   0  0  0  0  0  0  0  0  0  0  0  0
   -3.0000    0.0000    0.0000 O   0  0  0  0  0  0  0  0  0  0  0  0
   -3.7500   -1.2990    0.0000 C   0  0  0  0  0  0  0  0  0  0  0  0
   -5.2500   -1.2990    0.0000 C   0  0  0  0  0  0  0  0  0  0  0  0
   -6.0000    0.0000    0.0000 C   0  0  0  0  0  0  0  0  0  0  0  0
   -7.5000    0.0000    0.0000 C   0  0  0  0  0  0  0  0  0  0  0  0
   -8.2500   -1.2990    0.0000 C   0  0  0  0  0  0  0  0  0  0  0  0
   -7.5000   -2.5981    0.0000 C   0  0  0  0  0  0  0  0  0  0  0  0
   -6.0000   -2.5981    0.0000 C   0  0  0  0  0  0  0  0  0  0  0  0
   -2.0119    2.1100    0.0000 C   0  0  0  0  0  0  0  0  0  0  0  0
   -2.6350    3.4744    0.0000 C   0  0  0  0  0  0  0  0  0  0  0  0
   -4.1282    3.6170    0.0000 C   0  0  0  0  0  0  0  0  0  0  0  0
   -4.9983    2.3952    0.0000 C   0  0  0  0  0  0  0  0  0  0  0  0
   -6.4915    2.5378    0.0000 O   0  0  0  0  0  0  0  0  0  0  0  0
   -7.1146    3.9022    0.0000 C   0  0  0  0  0  0  0  0  0  0  0  0
   -8.6078    4.0448    0.0000 C   0  0  0  0  0  0  0  0  0  0  0  0
   -9.2310    5.4092    0.0000 C   0  0  0  0  0  0  0  0  0  0  0  0
  -10.7242    5.5518    0.0000 C   0  0  0  0  0  0  0  0  0  0  0  0
  -11.5943    4.3300    0.0000 C   0  0  0  0  0  0  0  0  0  0  0  0
  -10.9711    2.9655    0.0000 C   0  0  0  0  0  0  0  0  0  0  0  0
   -9.4779    2.8229    0.0000 C   0  0  0  0  0  0  0  0  0  0  0  0
   -4.3752    1.0307    0.0000 C   0  0  0  0  0  0  0  0  0  0  0  0
   -5.2453   -0.1911    0.0000 O   0  0  0  0  0  0  0  0  0  0  0  0
   -6.7385   -0.0486    0.0000 C   0  0  0  0  0  0  0  0  0  0  0  0
   -7.6086   -1.2704    0.0000 C   0  0  0  0  0  0  0  0  0  0  0  0
   -9.1018   -1.1278    0.0000 C   0  0  0  0  0  0  0  0  0  0  0  0
   -9.9718   -2.3497    0.0000 C   0  0  0  0  0  0  0  0  0  0  0  0
   -9.3487   -3.7142    0.0000 C   0  0  0  0  0  0  0  0  0  0  0  0
   -7.8555   -3.8567    0.0000 C   0  0  0  0  0  0  0  0  0  0  0  0
   -6.9854   -2.6349    0.0000 C   0  0  0  0  0  0  0  0  0  0  0  0
   -2.8820    0.8881    0.0000 C   0  0  0  0  0  0  0  0  0  0  0  0
   -2.2588   -0.4763    0.0000 O   0  0  0  0  0  0  0  0  0  0  0  0
   -3.1289   -1.6982    0.0000 C   0  0  0  0  0  0  0  0  0  0  0  0
   -2.5058   -3.0626    0.0000 C   0  0  0  0  0  0  0  0  0  0  0  0
   -3.3759   -4.2845    0.0000 C   0  0  0  0  0  0  0  0  0  0  0  0
   -2.7528   -5.6489    0.0000 C   0  0  0  0  0  0  0  0  0  0  0  0
   -1.2596   -5.7915    0.0000 C   0  0  0  0  0  0  0  0  0  0  0  0
   -0.3895   -4.5697    0.0000 C   0  0  0  0  0  0  0  0  0  0  0  0
   -1.0126   -3.2052    0.0000 C   0  0  0  0  0  0  0  0  0  0  0  0
   -2.4215    4.9592    0.0000 C   0  0  0  0  0  0  0  0  0  0  0  0
   -3.7860    5.5823    0.0000 O   0  0  0  0  0  0  0  0  0  0  0  0
   -1.4392    6.0928    0.0000 O   0  0  0  0  0  0  0  0  0  0  0  0
    0.0000    6.5154    0.0000 C   0  0  0  0  0  0  0  0  0  0  0  0
   -0.3536    7.9731    0.0000 C   0  0  0  0  0  0  0  0  0  0  0  0
   -1.8403    7.7738    0.0000 O   0  0  0  0  0  0  0  0  0  0  0  0
   -3.1603    8.4864    0.0000 C   0  0  0  0  0  0  0  0  0  0  0  0
   -4.2459    7.4513    0.0000 O   0  0  0  0  0  0  0  0  0  0  0  0
   -3.8092    9.8387    0.0000 C   0  0  0  0  0  0  0  0  0  0  0  0
   -5.2220    9.3347    0.0000 C   0  0  0  0  0  0  0  0  0  0  0  0
   -6.3649   10.3061    0.0000 C   0  0  0  0  0  0  0  0  0  0  0  0
   -7.7777    9.8020    0.0000 O   0  0  0  0  0  0  0  0  0  0  0  0
   -8.9206   10.7735    0.0000 C   0  0  0  0  0  0  0  0  0  0  0  0
  -10.3334   10.2694    0.0000 C   0  0  0  0  0  0  0  0  0  0  0  0
  -11.4763   11.2409    0.0000 C   0  0  0  0  0  0  0  0  0  0  0  0
  -12.8891   10.7368    0.0000 C   0  0  0  0  0  0  0  0  0  0  0  0
  -13.1589    9.2613    0.0000 C   0  0  0  0  0  0  0  0  0  0  0  0
  -12.0160    8.2898    0.0000 C   0  0  0  0  0  0  0  0  0  0  0  0
  -10.6032    8.7939    0.0000 C   0  0  0  0  0  0  0  0  0  0  0  0
   -6.0951   11.7816    0.0000 C   0  0  0  0  0  0  0  0  0  0  0  0
   -7.2380   12.7531    0.0000 O   0  0  0  0  0  0  0  0  0  0  0  0
   -8.6508   12.2490    0.0000 C   0  0  0  0  0  0  0  0  0  0  0  0
   -9.7937   13.2205    0.0000 C   0  0  0  0  0  0  0  0  0  0  0  0
   -9.5239   14.6960    0.0000 C   0  0  0  0  0  0  0  0  0  0  0  0
  -10.6668   15.6675    0.0000 C   0  0  0  0  0  0  0  0  0  0  0  0
  -12.0796   15.1634    0.0000 C   0  0  0  0  0  0  0  0  0  0  0  0
  -12.3494   13.6879    0.0000 C   0  0  0  0  0  0  0  0  0  0  0  0
  -11.2065   12.7164    0.0000 C   0  0  0  0  0  0  0  0  0  0  0  0
   -4.6823   12.2857    0.0000 C   0  0  0  0  0  0  0  0  0  0  0  0
   -4.4125   13.7612    0.0000 O   0  0  0  0  0  0  0  0  0  0  0  0
   -5.5554   14.7327    0.0000 C   0  0  0  0  0  0  0  0  0  0  0  0
   -5.2856   16.2082    0.0000 C   0  0  0  0  0  0  0  0  0  0  0  0
   -3.8728   16.7123    0.0000 C   0  0  0  0  0  0  0  0  0  0  0  0
   -3.6030   18.1878    0.0000 C   0  0  0  0  0  0  0  0  0  0  0  0
   -4.7459   19.1593    0.0000 C   0  0  0  0  0  0  0  0  0  0  0  0
   -6.1587   18.6552    0.0000 C   0  0  0  0  0  0  0  0  0  0  0  0
   -6.4285   17.1797    0.0000 C   0  0  0  0  0  0  0  0  0  0  0  0
   -3.5394   11.3143    0.0000 C   0  0  0  0  0  0  0  0  0  0  0  0
   -2.4538   12.3494    0.0000 C   0  0  0  0  0  0  0  0  0  0  0  0
   -0.9671   12.5487    0.0000 C   0  0  0  0  0  0  0  0  0  0  0  0
   -0.3964   13.9359    0.0000 C   0  0  0  0  0  0  0  0  0  0  0  0
   -1.3124   15.1237    0.0000 C   0  0  0  0  0  0  0  0  0  0  0  0
   -0.7416   16.5109    0.0000 O   0  0  0  0  0  0  0  0  0  0  0  0
    0.7451   16.7102    0.0000 C   0  0  0  0  0  0  0  0  0  0  0  0
    1.3158   18.0974    0.0000 C   0  0  0  0  0  0  0  0  0  0  0  0
    2.8025   18.2968    0.0000 C   0  0  0  0  0  0  0  0  0  0  0  0
    3.3732   19.6839    0.0000 C   0  0  0  0  0  0  0  0  0  0  0  0
    2.4572   20.8718    0.0000 C   0  0  0  0  0  0  0  0  0  0  0  0
    0.9705   20.6725    0.0000 C   0  0  0  0  0  0  0  0  0  0  0  0
    0.3998   19.2853    0.0000 C   0  0  0  0  0  0  0  0  0  0  0  0
   -2.7991   14.9244    0.0000 C   0  0  0  0  0  0  0  0  0  0  0  0
   -3.7150   16.1123    0.0000 O   0  0  0  0  0  0  0  0  0  0  0  0
   -3.1443   17.4994    0.0000 C   0  0  0  0  0  0  0  0  0  0  0  0
   -4.0603   18.6873    0.0000 C   0  0  0  0  0  0  0  0  0  0  0  0
   -3.4895   20.0745    0.0000 C   0  0  0  0  0  0  0  0  0  0  0  0
   -4.4055   21.2623    0.0000 C   0  0  0  0  0  0  0  0  0  0  0  0
   -5.8922   21.0630    0.0000 C   0  0  0  0  0  0  0  0  0  0  0  0
   -6.4629   19.6758    0.0000 C   0  0  0  0  0  0  0  0  0  0  0  0
   -5.5470   18.4880    0.0000 C   0  0  0  0  0  0  0  0  0  0  0  0
   -3.3698   13.5372    0.0000 C   0  0  0  0  0  0  0  0  0  0  0  0
   -4.8565   13.3379    0.0000 O   0  0  0  0  0  0  0  0  0  0  0  0
   -5.7724   14.5258    0.0000 C   0  0  0  0  0  0  0  0  0  0  0  0
   -7.2591   14.3264    0.0000 C   0  0  0  0  0  0  0  0  0  0  0  0
   -8.1751   15.5143    0.0000 C   0  0  0  0  0  0  0  0  0  0  0  0
   -9.6618   15.3150    0.0000 C   0  0  0  0  0  0  0  0  0  0  0  0
  -10.2325   13.9278    0.0000 C   0  0  0  0  0  0  0  0  0  0  0  0
   -9.3166   12.7399    0.0000 C   0  0  0  0  0  0  0  0  0  0  0  0
   -7.8299   12.9392    0.0000 C   0  0  0  0  0  0  0  0  0  0  0  0
    0.3528   11.8361    0.0000 C   0  0  0  0  0  0  0  0  0  0  0  0
    1.4384   12.8712    0.0000 O   0  0  0  0  0  0  0  0  0  0  0  0
    1.0018   10.4838    0.0000 O   0  0  0  0  0  0  0  0  0  0  0  0
    0.7320    9.0082    0.0000 C   0  0  0  0  0  0  0  0  0  0  0  0
    2.1712    8.5856    0.0000 C   0  0  0  0  0  0  0  0  0  0  0  0
    3.2568    9.6208    0.0000 O   0  0  0  0  0  0  0  0  0  0  0  0
    4.6960    9.1982    0.0000 C   0  0  0  0  0  0  0  0  0  0  0  0
    5.0497    7.7404    0.0000 O   0  0  0  0  0  0  0  0  0  0  0  0
    5.7816   10.2333    0.0000 C   0  0  0  0  0  0  0  0  0  0  0  0
    7.2209    9.8107    0.0000 C   0  0  0  0  0  0  0  0  0  0  0  0
    8.3065   10.8458    0.0000 C   0  0  0  0  0  0  0  0  0  0  0  0
    9.7457   10.4232    0.0000 O   0  0  0  0  0  0  0  0  0  0  0  0
   10.0994    8.9655    0.0000 C   0  0  0  0  0  0  0  0  0  0  0  0
   11.5386    8.5429    0.0000 C   0  0  0  0  0  0  0  0  0  0  0  0
   11.8922    7.0852    0.0000 C   0  0  0  0  0  0  0  0  0  0  0  0
   13.3315    6.6626    0.0000 C   0  0  0  0  0  0  0  0  0  0  0  0
   14.4171    7.6977    0.0000 C   0  0  0  0  0  0  0  0  0  0  0  0
   14.0634    9.1554    0.0000 C   0  0  0  0  0  0  0  0  0  0  0  0
   12.6242    9.5780    0.0000 C   0  0  0  0  0  0  0  0  0  0  0  0
    7.9528   12.3035    0.0000 C   0  0  0  0  0  0  0  0  0  0  0  0
    9.0384   13.3386    0.0000 O   0  0  0  0  0  0  0  0  0  0  0  0
    8.6848   14.7964    0.0000 C   0  0  0  0  0  0  0  0  0  0  0  0
    9.7704   15.8315    0.0000 C   0  0  0  0  0  0  0  0  0  0  0  0
   11.2096   15.4089    0.0000 C   0  0  0  0  0  0  0  0  0  0  0  0
   12.2953   16.4440    0.0000 C   0  0  0  0  0  0  0  0  0  0  0  0
   11.9416   17.9017    0.0000 C   0  0  0  0  0  0  0  0  0  0  0  0
   10.5024   18.3243    0.0000 C   0  0  0  0  0  0  0  0  0  0  0  0
    9.4168   17.2892    0.0000 C   0  0  0  0  0  0  0  0  0  0  0  0
    6.5136   12.7261    0.0000 C   0  0  0  0  0  0  0  0  0  0  0  0
    6.1600   14.1838    0.0000 O   0  0  0  0  0  0  0  0  0  0  0  0
    4.7207   14.6064    0.0000 C   0  0  0  0  0  0  0  0  0  0  0  0
    4.3671   16.0641    0.0000 C   0  0  0  0  0  0  0  0  0  0  0  0
    5.4527   17.0993    0.0000 C   0  0  0  0  0  0  0  0  0  0  0  0
    5.0991   18.5570    0.0000 C   0  0  0  0  0  0  0  0  0  0  0  0
    3.6598   18.9796    0.0000 C   0  0  0  0  0  0  0  0  0  0  0  0
    2.5742   17.9445    0.0000 C   0  0  0  0  0  0  0  0  0  0  0  0
    2.9279   16.4867    0.0000 C   0  0  0  0  0  0  0  0  0  0  0  0
    5.4280   11.6910    0.0000 C   0  0  0  0  0  0  0  0  0  0  0  0
    2.5248    7.1279    0.0000 O   0  0  0  0  0  0  0  0  0  0  0  0
    1.4392    6.0928    0.0000 C   0  0  0  0  0  0  0  0  0  0  0  0
    2.4215    4.9592    0.0000 C   0  0  0  0  0  0  0  0  0  0  0  0
    2.6350    3.4744    0.0000 O   0  0  0  0  0  0  0  0  0  0  0  0
    2.0119    2.1100    0.0000 C   0  0  0  0  0  0  0  0  0  0  0  0
    3.1455    1.1277    0.0000 O   0  0  0  0  0  0  0  0  0  0  0  0
   -1.5000   -5.1962    0.0000 C   0  0  0  0  0  0  0  0  0  0  0  0
   -2.6491   -6.1603    0.0000 O   0  0  0  0  0  0  0  0  0  0  0  0
   -2.3886   -7.6375    0.0000 C   0  0  0  0  0  0  0  0  0  0  0  0
   -3.5377   -8.6017    0.0000 C   0  0  0  0  0  0  0  0  0  0  0  0
   -4.9472   -8.0887    0.0000 C   0  0  0  0  0  0  0  0  0  0  0  0
   -6.0963   -9.0529    0.0000 C   0  0  0  0  0  0  0  0  0  0  0  0
   -5.8358  -10.5301    0.0000 C   0  0  0  0  0  0  0  0  0  0  0  0
   -4.4263  -11.0431    0.0000 C   0  0  0  0  0  0  0  0  0  0  0  0
   -3.2772  -10.0789    0.0000 C   0  0  0  0  0  0  0  0  0  0  0  0
   -2.6491   -4.2320    0.0000 O   0  0  0  0  0  0  0  0  0  0  0  0
   -4.0586   -4.7450    0.0000 C   0  0  0  0  0  0  0  0  0  0  0  0
   -5.2077   -3.7808    0.0000 C   0  0  0  0  0  0  0  0  0  0  0  0
   -4.9472   -2.3036    0.0000 C   0  0  0  0  0  0  0  0  0  0  0  0
   -6.0963   -1.3394    0.0000 C   0  0  0  0  0  0  0  0  0  0  0  0
   -7.5058   -1.8525    0.0000 C   0  0  0  0  0  0  0  0  0  0  0  0
   -7.7663   -3.3297    0.0000 C   0  0  0  0  0  0  0  0  0  0  0  0
   -6.6172   -4.2939    0.0000 C   0  0  0  0  0  0  0  0  0  0  0  0
   -0.7500   -6.4952    0.0000 C   0  0  0  0  0  0  0  0  0  0  0  0
   -1.5000   -7.7942    0.0000 O   0  0  0  0  0  0  0  0  0  0  0  0
    0.7500   -6.4952    0.0000 C   0  0  0  0  0  0  0  0  0  0  0  0
    1.5000   -7.7942    0.0000 O   0  0  0  0  0  0  0  0  0  0  0  0
    0.7500   -9.0933    0.0000 C   0  0  0  0  0  0  0  0  0  0  0  0
    1.5000  -10.3923    0.0000 C   0  0  0  0  0  0  0  0  0  0  0  0
    0.7500  -11.6913    0.0000 C   0  0  0  0  0  0  0  0  0  0  0  0
    1.5000  -12.9904    0.0000 C   0  0  0  0  0  0  0  0  0  0  0  0
    3.0000  -12.9904    0.0000 C   0  0  0  0  0  0  0  0  0  0  0  0
    3.7500  -11.6913    0.0000 C   0  0  0  0  0  0  0  0  0  0  0  0
    3.0000  -10.3923    0.0000 C   0  0  0  0  0  0  0  0  0  0  0  0
    1.5000   -5.1962    0.0000 C   0  0  0  0  0  0  0  0  0  0  0  0
  1  2  2  0
  2  3  1  0
  3  4  1  0
  4  5  1  0
  5  6  2  0
  6  7  1  0
  7  8  2  0
  8  9  1  0
  9 10  2  0
  2 11  1  0
 11 12  2  0
 12 13  1  0
 13 14  1  0
 14 15  1  0
 15 16  1  0
 16 17  1  0
 17 18  1  0
 18 19  2  0
 19 20  1  0
 20 21  2  0
 21 22  1  0
 22 23  2  0
 15 24  2  0
 24 25  1  0
 25 26  2  0
 26 27  1  0
 27 28  1  0
 28 29  1  0
 29 30  1  0
 30 31  2  0
 31 32  1  0
 32 33  2  0
 33 34  1  0
 34 35  2  0
 26 36  1  0
 36 37  2  0
 37 38  1  0
 38 39  2  0
 39 40  1  0
 40 41  1  0
 41 42  1  0
 42 43  2  0
 43 44  1  0
 44 45  2  0
 45 46  1  0
 46 47  2  0
 39 48  1  0
 48 49  1  0
 49 50  1  0
 50 51  1  0
 51 52  2  0
 52 53  1  0
 53 54  2  0
 54 55  1  0
 55 56  2  0
 48 57  2  0
 57 58  1  0
 58 59  1  0
 59 60  1  0
 60 61  2  0
 61 62  1  0
 62 63  2  0
 63 64  1  0
 64 65  2  0
 37 66  1  0
 66 67  2  0
 66 68  1  0
 69 68  1  1
 69 70  1  0
 70 71  1  6
 71 72  1  0
 72 73  2  0
 72 74  1  0
 74 75  1  0
 75 76  2  0
 76 77  1  0
 77 78  1  0
 78 79  1  0
 79 80  2  0
 80 81  1  0
 81 82  2  0
 82 83  1  0
 83 84  2  0
 76 85  1  0
 85 86  1  0
 86 87  1  0
 87 88  1  0
 88 89  2  0
 89 90  1  0
 90 91  2  0
 91 92  1  0
 92 93  2  0
 85 94  2  0
 94 95  1  0
 95 96  1  0
 96 97  1  0
 97 98  2  0
 98 99  1  0
 99100  2  0
100101  1  0
101102  2  0
 94103  1  0
103104  1  0
104105  2  0
105106  1  0
106107  2  0
107108  1  0
108109  1  0
109110  1  0
110111  2  0
111112  1  0
112113  2  0
113114  1  0
114115  2  0
107116  1  0
116117  1  0
117118  1  0
118119  1  0
119120  2  0
120121  1  0
121122  2  0
122123  1  0
123124  2  0
116125  2  0
125126  1  0
126127  1  0
127128  1  0
128129  2  0
129130  1  0
130131  2  0
131132  1  0
132133  2  0
105134  1  0
134135  2  0
134136  1  0
137136  1  1
137138  1  0
138139  1  6
139140  1  0
140141  2  0
140142  1  0
142143  2  0
143144  1  0
144145  1  0
145146  1  0
146147  1  0
147148  2  0
148149  1  0
149150  2  0
150151  1  0
151152  2  0
144153  2  0
153154  1  0
154155  1  0
155156  1  0
156157  2  0
157158  1  0
158159  2  0
159160  1  0
160161  2  0
153162  1  0
162163  1  0
163164  1  0
164165  1  0
165166  2  0
166167  1  0
167168  2  0
168169  1  0
169170  2  0
162171  2  0
138172  1  0
172173  1  0
173174  1  6
174175  1  0
175176  1  0
176177  2  0
 12178  1  0
178179  1  0
179180  1  0
180181  1  0
181182  2  0
182183  1  0
183184  2  0
184185  1  0
185186  2  0
178187  1  0
187188  1  0
188189  1  0
189190  2  0
190191  1  0
191192  2  0
192193  1  0
193194  2  0
178195  1  0
195196  2  0
195197  1  0
197198  1  0
198199  1  0
199200  1  0
200201  2  0
201202  1  0
202203  2  0
203204  1  0
204205  2  0
197206  2  0
 10  5  1  0
206 11  1  0
 27 14  2  0
 35 30  1  0
 57 36  1  0
 65 60  1  0
173 69  1  0
186181  1  0
194189  1  0
205200  1  0
 23 18  1  0
176 25  1  0
 47 42  1  0
 56 51  1  0
137 70  1  0
171142  1  0
103 74  2  0
125104  1  0
133128  1  0
152147  1  0
161156  1  0
170165  1  0
 84 79  1  0
 93 88  1  0
102 97  1  0
115110  1  0
124119  1  0
M  END
$$$$
2
     RDKit          2D

 79 87  0  0  0  0  0  0  0  0999 V2000
    3.7500   -1.2990    0.0000 O   0  0  0  0  0  0  0  0  0  0  0  0
    3.0000   -2.5981    0.0000 C   0  0  0  0  0  0  0  0  0  0  0  0
    1.5000   -2.5981    0.0000 O   0  0  0  0  0  0  0  0  0  0  0  0
    0.7500   -1.2990    0.0000 C   0  0  0  0  0  0  0  0  0  0  0  0
    1.5000    0.0000    0.0000 O   0  0  0  0  0  0  0  0  0  0  0  0
    0.7500    1.2990    0.0000 C   0  0  0  0  0  0  0  0  0  0  0  0
    2.0119    2.1100    0.0000 C   0  0  0  0  0  0  0  0  0  0  0  0
    2.6350    3.4744    0.0000 O   0  0  0  0  0  0  0  0  0  0  0  0
    2.4215    4.9592    0.0000 C   0  0  0  0  0  0  0  0  0  0  0  0
    3.7860    5.5823    0.0000 O   0  0  0  0  0  0  0  0  0  0  0  0
    1.4392    6.0928    0.0000 C   0  0  0  0  0  0  0  0  0  0  0  0
    2.5248    7.1279    0.0000 C   0  0  0  0  0  0  0  0  0  0  0  0
    2.1712    8.5856    0.0000 C   0  0  0  0  0  0  0  0  0  0  0  0
    2.9609    9.1729    0.0000 O   0  0  0  0  0  0  0  0  0  0  0  0
    0.7320    9.0082    0.0000 C   0  0  0  0  0  0  0  0  0  0  0  0
    0.3783   10.4660    0.0000 O   0  0  0  0  0  0  0  0  0  0  0  0
    1.4639   11.5011    0.0000 C   0  0  0  0  0  0  0  0  0  0  0  0
    1.1103   12.9588    0.0000 C   0  0  0  0  0  0  0  0  0  0  0  0
   -0.3290   13.3814    0.0000 C   0  0  0  0  0  0  0  0  0  0  0  0
   -1.4146   12.3463    0.0000 O   0  0  0  0  0  0  0  0  0  0  0  0
   -0.6826   14.8391    0.0000 O   0  0  0  0  0  0  0  0  0  0  0  0
    2.1959   13.9939    0.0000 C   0  0  0  0  0  0  0  0  0  0  0  0
    3.6351   13.5713    0.0000 C   0  0  0  0  0  0  0  0  0  0  0  0
    4.7207   14.6064    0.0000 O   0  0  0  0  0  0  0  0  0  0  0  0
    3.9888   12.1136    0.0000 C   0  0  0  0  0  0  0  0  0  0  0  0
    5.4280   11.6910    0.0000 O   0  0  0  0  0  0  0  0  0  0  0  0
    2.9032   11.0785    0.0000 C   0  0  0  0  0  0  0  0  0  0  0  0
    3.2500   10.1575    0.0000 O   0  0  0  0  0  0  0  0  0  0  0  0
   -0.3536    7.9731    0.0000 C   0  0  0  0  0  0  0  0  0  0  0  0
   -1.0854    8.2893    0.0000 O   0  0  0  0  0  0  0  0  0  0  0  0
   -0.0000    6.5154    0.0000 C   0  0  0  0  0  0  0  0  0  0  0  0
   -1.4392    6.0928    0.0000 C   0  0  0  0  0  0  0  0  0  0  0  0
   -2.4215    4.9592    0.0000 C   0  0  0  0  0  0  0  0  0  0  0  0
   -3.8944    5.2431    0.0000 C   0  0  0  0  0  0  0  0  0  0  0  0
   -4.3850    6.6606    0.0000 C   0  0  0  0  0  0  0  0  0  0  0  0
   -5.8579    6.9444    0.0000 O   0  0  0  0  0  0  0  0  0  0  0  0
   -3.4027    7.7942    0.0000 C   0  0  0  0  0  0  0  0  0  0  0  0
   -3.8933    9.2117    0.0000 O   0  0  0  0  0  0  0  0  0  0  0  0
   -1.9298    7.5103    0.0000 C   0  0  0  0  0  0  0  0  0  0  0  0
   -1.4851    8.1719    0.0000 O   0  0  0  0  0  0  0  0  0  0  0  0
   -2.6350    3.4744    0.0000 C   0  0  0  0  0  0  0  0  0  0  0  0
   -4.1197    3.2610    0.0000 O   0  0  0  0  0  0  0  0  0  0  0  0
   -2.0119    2.1100    0.0000 O   0  0  0  0  0  0  0  0  0  0  0  0
   -0.7500    1.2990    0.0000 C   0  0  0  0  0  0  0  0  0  0  0  0
   -1.5000    0.0000    0.0000 C   0  0  0  0  0  0  0  0  0  0  0  0
   -2.8703    0.6101    0.0000 O   0  0  0  0  0  0  0  0  0  0  0  0
   -4.3375    0.2982    0.0000 C   0  0  0  0  0  0  0  0  0  0  0  0
   -5.0875    1.5973    0.0000 O   0  0  0  0  0  0  0  0  0  0  0  0
   -5.3412   -0.8165    0.0000 C   0  0  0  0  0  0  0  0  0  0  0  0
   -6.5548    0.0652    0.0000 C   0  0  0  0  0  0  0  0  0  0  0  0
   -7.9251   -0.5449    0.0000 C   0  0  0  0  0  0  0  0  0  0  0  0
   -9.1386    0.3368    0.0000 O   0  0  0  0  0  0  0  0  0  0  0  0
   -8.0819   -2.0367    0.0000 C   0  0  0  0  0  0  0  0  0  0  0  0
   -9.4522   -2.6468    0.0000 O   0  0  0  0  0  0  0  0  0  0  0  0
   -6.8683   -2.9184    0.0000 C   0  0  0  0  0  0  0  0  0  0  0  0
   -7.2058   -4.3799    0.0000 O   0  0  0  0  0  0  0  0  0  0  0  0
   -5.4980   -2.3083    0.0000 C   0  0  0  0  0  0  0  0  0  0  0  0
   -4.7480   -3.6073    0.0000 C   0  0  0  0  0  0  0  0  0  0  0  0
   -3.3777   -4.2174    0.0000 C   0  0  0  0  0  0  0  0  0  0  0  0
   -3.2209   -5.7092    0.0000 C   0  0  0  0  0  0  0  0  0  0  0  0
   -4.4344   -6.5909    0.0000 C   0  0  0  0  0  0  0  0  0  0  0  0
   -4.2777   -8.0826    0.0000 O   0  0  0  0  0  0  0  0  0  0  0  0
   -5.8048   -5.9808    0.0000 C   0  0  0  0  0  0  0  0  0  0  0  0
   -7.0183   -6.8624    0.0000 O   0  0  0  0  0  0  0  0  0  0  0  0
   -5.9616   -4.4890    0.0000 C   0  0  0  0  0  0  0  0  0  0  0  0
   -7.3960   -4.0505    0.0000 O   0  0  0  0  0  0  0  0  0  0  0  0
   -1.9105   -3.9055    0.0000 C   0  0  0  0  0  0  0  0  0  0  0  0
   -1.1605   -5.2046    0.0000 O   0  0  0  0  0  0  0  0  0  0  0  0
   -0.9068   -2.7908    0.0000 O   0  0  0  0  0  0  0  0  0  0  0  0
   -0.7500   -1.2990    0.0000 C   0  0  0  0  0  0  0  0  0  0  0  0
    3.7500   -3.8971    0.0000 C   0  0  0  0  0  0  0  0  0  0  0  0
    3.0000   -5.1962    0.0000 C   0  0  0  0  0  0  0  0  0  0  0  0
    3.7500   -6.4952    0.0000 C   0  0  0  0  0  0  0  0  0  0  0  0
    3.0000   -7.7942    0.0000 O   0  0  0  0  0  0  0  0  0  0  0  0
    5.2500   -6.4952    0.0000 C   0  0  0  0  0  0  0  0  0  0  0  0
    6.0000   -7.7942    0.0000 O   0  0  0  0  0  0  0  0  0  0  0  0
    6.0000   -5.1962    0.0000 C   0  0  0  0  0  0  0  0  0  0  0  0
    7.5000   -5.1962    0.0000 O   0  0  0  0  0  0  0  0  0  0  0  0
    5.2500   -3.8971    0.0000 C   0  0  0  0  0  0  0  0  0  0  0  0
  1  2  2  0
  2  3  1  0
  4  3  1  1
  4  5  1  0
  5  6  1  0
  6  7  1  1
  7  8  1  0
  8  9  1  0
  9 10  2  0
  9 11  1  0
 11 12  1  0
 12 13  2  0
 13 14  1  0
 13 15  1  0
 15 16  1  0
 16 17  1  0
 17 18  2  0
 18 19  1  0
 19 20  2  0
 19 21  1  0
 18 22  1  0
 22 23  2  0
 23 24  1  0
 23 25  1  0
 25 26  1  0
 25 27  2  0
 27 28  1  0
 15 29  2  0
 29 30  1  0
 29 31  1  0
 31 32  1  0
 32 33  2  0
 33 34  1  0
 34 35  2  0
 35 36  1  0
 35 37  1  0
 37 38  1  0
 37 39  2  0
 39 40  1  0
 33 41  1  0
 41 42  2  0
 41 43  1  0
 44 43  1  6
 44 45  1  0
 45 46  1  1
 46 47  1  0
 47 48  2  0
 47 49  1  0
 49 50  1  0
 50 51  2  0
 51 52  1  0
 51 53  1  0
 53 54  1  0
 53 55  2  0
 55 56  1  0
 55 57  1  0
 57 58  1  0
 58 59  2  0
 59 60  1  0
 60 61  2  0
 61 62  1  0
 61 63  1  0
 63 64  1  0
 63 65  2  0
 65 66  1  0
 59 67  1  0
 67 68  2  0
 67 69  1  0
 70 69  1  6
  2 71  1  0
 71 72  2  0
 72 73  1  0
 73 74  1  0
 73 75  2  0
 75 76  1  0
 75 77  1  0
 77 78  1  0
 77 79  2  0
 70  4  1  0
 79 71  1  0
 44  6  1  0
 70 45  1  0
 31 11  2  0
 39 32  1  0
 57 49  2  0
 65 58  1  0
 27 17  1  0
M  END
$$$$
allyl-alcohol
     RDKit          2D

  4  3  0  0  0  0  0  0  0  0999 V2000
    0.0000    0.0000    0.0000 C   0  0  0  0  0  0  0  0  0  0  0  0
    1.2990    0.7500    0.0000 C   0  0  0  0  0  0  0  0  0  0  0  0
    2.5981   -0.0000    0.0000 C   0  0  0  0  0  0  0  0  0  0  0  0
    3.8971    0.7500    0.0000 O   0  0  0  0  0  0  0  0  0  0  0  0
  1  2  2  0
  2  3  1  0
  3  4  1  0
M  END
$$$$
benzaldehyde-dimethyl-acetal
     RDKit          2D

 11 11  0  0  0  0  0  0  0  0999 V2000
    5.2500   -1.2990    0.0000 C   0  0  0  0  0  0  0  0  0  0  0  0
    3.7500   -1.2990    0.0000 O   0  0  0  0  0  0  0  0  0  0  0  0
    3.0000    0.0000    0.0000 C   0  0  0  0  0  0  0  0  0  0  0  0
    3.7500    1.2990    0.0000 O   0  0  0  0  0  0  0  0  0  0  0  0
    5.2500    1.2990    0.0000 C   0  0  0  0  0  0  0  0  0  0  0  0
    1.5000    0.0000    0.0000 C   0  0  0  0  0  0  0  0  0  0  0  0
    0.7500   -1.2990    0.0000 C   0  0  0  0  0  0  0  0  0  0  0  0
   -0.7500   -1.2990    0.0000 C   0  0  0  0  0  0  0  0  0  0  0  0
   -1.5000    0.0000    0.0000 C   0  0  0  0  0  0  0  0  0  0  0  0
   -0.7500    1.2990    0.0000 C   0  0  0  0  0  0  0  0  0  0  0  0
    0.7500    1.2990    0.0000 C   0  0  0  0  0  0  0  0  0  0  0  0
  1  2  1  0
  2  3  1  0
  3  4  1  0
  4  5  1  0
  3  6  1  0
  6  7  2  0
  7  8  1  0
  8  9  2  0
  9 10  1  0
 10 11  2  0
 11  6  1  0
M  END
$$$$
BnBr
     RDKit          2D

  8  8  0  0  0  0  0  0  0  0999 V2000
    3.7500   -1.2990    0.0000 Br  0  0  0  0  0  0  0  0  0  0  0  0
    3.0000    0.0000    0.0000 C   0  0  0  0  0  0  0  0  0  0  0  0
    1.5000    0.0000    0.0000 C   0  0  0  0  0  0  0  0  0  0  0  0
    0.7500   -1.2990    0.0000 C   0  0  0  0  0  0  0  0  0  0  0  0
   -0.7500   -1.2990    0.0000 C   0  0  0  0  0  0  0  0  0  0  0  0
   -1.5000    0.0000    0.0000 C   0  0  0  0  0  0  0  0  0  0  0  0
   -0.7500    1.2990    0.0000 C   0  0  0  0  0  0  0  0  0  0  0  0
    0.7500    1.2990    0.0000 C   0  0  0  0  0  0  0  0  0  0  0  0
  1  2  1  0
  2  3  1  0
  3  4  2  0
  4  5  1  0
  5  6  2  0
  6  7  1  0
  7  8  2  0
  8  3  1  0
M  END
$$$$
BnCl
     RDKit          2D

  8  8  0  0  0  0  0  0  0  0999 V2000
    3.7500   -1.2990    0.0000 Cl  0  0  0  0  0  0  0  0  0  0  0  0
    3.0000    0.0000    0.0000 C   0  0  0  0  0  0  0  0  0  0  0  0
    1.5000    0.0000    0.0000 C   0  0  0  0  0  0  0  0  0  0  0  0
    0.7500   -1.2990    0.0000 C   0  0  0  0  0  0  0  0  0  0  0  0
   -0.7500   -1.2990    0.0000 C   0  0  0  0  0  0  0  0  0  0  0  0
   -1.5000    0.0000    0.0000 C   0  0  0  0  0  0  0  0  0  0  0  0
   -0.7500    1.2990    0.0000 C   0  0  0  0  0  0  0  0  0  0  0  0
    0.7500    1.2990    0.0000 C   0  0  0  0  0  0  0  0  0  0  0  0
  1  2  1  0
  2  3  1  0
  3  4  2  0
  4  5  1  0
  5  6  2  0
  6  7  1  0
  7  8  2  0
  8  3  1  0
M  END
$$$$
MOMCl
     RDKit          2D

  4  3  0  0  0  0  0  0  0  0999 V2000
    0.0000    0.0000    0.0000 C   0  0  0  0  0  0  0  0  0  0  0  0
    1.2990    0.7500    0.0000 O   0  0  0  0  0  0  0  0  0  0  0  0
    2.5981   -0.0000    0.0000 C   0  0  0  0  0  0  0  0  0  0  0  0
    3.8971    0.7500    0.0000 Cl  0  0  0  0  0  0  0  0  0  0  0  0
  1  2  1  0
  2  3  1  0
  3  4  1  0
M  END
$$$$
allyl-Br
     RDKit          2D

  4  3  0  0  0  0  0  0  0  0999 V2000
    0.0000    0.0000    0.0000 C   0  0  0  0  0  0  0  0  0  0  0  0
    1.2990    0.7500    0.0000 C   0  0  0  0  0  0  0  0  0  0  0  0
    2.5981   -0.0000    0.0000 C   0  0  0  0  0  0  0  0  0  0  0  0
    3.8971    0.7500    0.0000 Br  0  0  0  0  0  0  0  0  0  0  0  0
  1  2  2  0
  2  3  1  0
  3  4  1  0
M  END
$$$$
t-BuOH
     RDKit          2D

  5  4  0  0  0  0  0  0  0  0999 V2000
    0.0000    0.0000    0.0000 C   0  0  0  0  0  0  0  0  0  0  0  0
    1.2990    0.7500    0.0000 C   0  0  0  0  0  0  0  0  0  0  0  0
    2.5981    1.5000    0.0000 C   0  0  0  0  0  0  0  0  0  0  0  0
    2.0490   -0.5490    0.0000 C   0  0  0  0  0  0  0  0  0  0  0  0
    0.5490    2.0490    0.0000 O   0  0  0  0  0  0  0  0  0  0  0  0
  1  2  1  0
  2  3  1  0
  2  4  1  0
  2  5  1  0
M  END
$$$$
TBSCl
     RDKit          2D

  8  7  0  0  0  0  0  0  0  0999 V2000
    0.0000    0.0000    0.0000 C   0  0  0  0  0  0  0  0  0  0  0  0
    1.2990    0.7500    0.0000 C   0  0  0  0  0  0  0  0  0  0  0  0
    2.5981    1.5000    0.0000 C   0  0  0  0  0  0  0  0  0  0  0  0
    2.0490   -0.5490    0.0000 C   0  0  0  0  0  0  0  0  0  0  0  0
    0.5490    2.0490    0.0000 Si  0  0  0  0  0  4  0  0  0  0  0  0
   -0.7500    1.2990    0.0000 C   0  0  0  0  0  0  0  0  0  0  0  0
    1.8481    2.7990    0.0000 C   0  0  0  0  0  0  0  0  0  0  0  0
   -0.2010    3.3481    0.0000 Cl  0  0  0  0  0  0  0  0  0  0  0  0
  1  2  1  0
  2  3  1  0
  2  4  1  0
  2  5  1  0
  5  6  1  0
  5  7  1  0
  5  8  1  0
M  END
$$$$
CCl3CN
     RDKit          2D

  6  5  0  0  0  0  0  0  0  0999 V2000
   -0.0000   -1.5000    0.0000 N   0  0  0  0  0  0  0  0  0  0  0  0
    0.0000    0.0000    0.0000 C   0  0  0  0  0  0  0  0  0  0  0  0
    0.0000    1.5000    0.0000 C   0  0  0  0  0  0  0  0  0  0  0  0
    0.0000    3.0000    0.0000 Cl  0  0  0  0  0  0  0  0  0  0  0  0
    1.5000    1.5000    0.0000 Cl  0  0  0  0  0  0  0  0  0  0  0  0
   -1.5000    1.5000    0.0000 Cl  0  0  0  0  0  0  0  0  0  0  0  0
  1  2  3  0
  2  3  1  0
  3  4  1  0
  3  5  1  0
  3  6  1  0
M  END
$$$$
