3
     RDKit          2D

 36 42  0  0  0  0  0  0  0  0999 V2000
   -5.7299   -5.4991    0.0000 C   0  0  0  0  0  0  0  0  0  0  0  0
   -4.7430   -4.3695    0.0000 C   0  0  0  0  0  0  0  0  0  0  0  0
   -5.0768   -2.9071    0.0000 C   0  0  0  0  0  0  0  0  0  0  0  0
   -6.4560   -2.3176    0.0000 O   0  0  0  0  0  0  0  0  0  0  0  0
   -3.7891   -2.1378    0.0000 O   0  0  0  0  0  0  0  0  0  0  0  0
   -2.6595   -3.1247    0.0000 C   0  0  0  0  0  0  0  0  0  0  0  0
   -1.2135   -2.7256    0.0000 C   0  0  0  0  0  0  0  0  0  0  0  0
   -0.7500   -1.2990    0.0000 C   0  0  0  0  0  0  0  0  0  0  0  0
    0.7500   -1.2990    0.0000 C   0  0  0  0  0  0  0  0  0  0  0  0
    1.2135   -2.7256    0.0000 C   0  0  0  0  0  0  0  0  0  0  0  0
   -0.0000   -3.6073    0.0000 C   0  0  0  0  0  0  0  0  0  0  0  0
    0.0673   -5.1058    0.0000 C   0  0  0  0  0  0  0  0  0  0  0  0
    1.4466   -5.6953    0.0000 C   0  0  0  0  0  0  0  0  0  0  0  0
   -1.0623   -6.0927    0.0000 C   0  0  0  0  0  0  0  0  0  0  0  0
   -2.5382   -5.8249    0.0000 C   0  0  0  0  0  0  0  0  0  0  0  0
   -3.2490   -4.5040    0.0000 C   0  0  0  0  0  0  0  0  0  0  0  0
    1.5000    0.0000    0.0000 O   0  0  0  0  0  0  0  0  0  0  0  0
    0.7500    1.2990    0.0000 C   0  0  0  0  0  0  0  0  0  0  0  0
   -0.7500    1.2990    0.0000 C   0  0  0  0  0  0  0  0  0  0  0  0
   -1.5000    0.0000    0.0000 C   0  0  0  0  0  0  0  0  0  0  0  0
    0.1399    2.6694    0.0000 C   0  0  0  0  0  0  0  0  0  0  0  0
   -1.3273    2.9812    0.0000 O   0  0  0  0  0  0  0  0  0  0  0  0
    1.2546    3.6731    0.0000 C   0  0  0  0  0  0  0  0  0  0  0  0
    2.5537    2.9231    0.0000 C   0  0  0  0  0  0  0  0  0  0  0  0
    3.8952    3.5940    0.0000 C   0  0  0  0  0  0  0  0  0  0  0  0
    3.8728    5.0939    0.0000 C   0  0  0  0  0  0  0  0  0  0  0  0
    5.2563    2.9635    0.0000 C   0  0  0  0  0  0  0  0  0  0  0  0
    5.6119    1.5063    0.0000 C   0  0  0  0  0  0  0  0  0  0  0  0
    4.6943    0.3196    0.0000 C   0  0  0  0  0  0  0  0  0  0  0  0
    5.1791   -1.0998    0.0000 C   0  0  0  0  0  0  0  0  0  0  0  0
    6.6125   -1.5420    0.0000 C   0  0  0  0  0  0  0  0  0  0  0  0
    3.9789   -1.9996    0.0000 C   0  0  0  0  0  0  0  0  0  0  0  0
    4.0013   -3.4994    0.0000 O   0  0  0  0  0  0  0  0  0  0  0  0
    2.7523   -1.1362    0.0000 O   0  0  0  0  0  0  0  0  0  0  0  0
    3.1945    0.2972    0.0000 C   0  0  0  0  0  0  0  0  0  0  0  0
    2.2418    1.4558    0.0000 C   0  0  0  0  0  0  0  0  0  0  0  0
  1  2  2  0
  2  3  1  0
  3  4  2  0
  3  5  1  0
  6  5  1  6
  6  7  1  0
  7  8  1  1
  8  9  2  0
  9 10  1  0
 11 10  1  1
 11 12  1  0
 12 13  2  0
 12 14  1  0
 14 15  1  0
 16 15  1  1
  9 17  1  0
 17 18  1  0
 18 19  1  1
 19 20  1  0
 18 21  1  0
 21 22  2  0
 21 23  1  0
 24 23  1  1
 24 25  1  0
 25 26  2  0
 25 27  1  0
 27 28  1  0
 29 28  1  1
 29 30  1  0
 30 31  2  0
 30 32  1  0
 32 33  2  0
 32 34  1  0
 35 34  1  6
 35 36  1  0
 16  2  1  0
 36 18  1  1
 16  6  1  0
 36 24  1  0
 11  7  1  0
 35 29  1  0
 20  8  1  0
M  END
$$$$
2
     RDKit          2D

 18 20  0  0  0  0  0  0  0  0999 V2000
    2.7760    0.0000    0.0000 C   0  0  0  0  0  0  0  0  0  0  0  0
    1.2760    0.0000    0.0000 C   0  0  0  0  0  0  0  0  0  0  0  0
    0.3943    1.2135    0.0000 C   0  0  0  0  0  0  0  0  0  0  0  0
    0.8578    2.6401    0.0000 O   0  0  0  0  0  0  0  0  0  0  0  0
   -1.0323    0.7500    0.0000 C   0  0  0  0  0  0  0  0  0  0  0  0
   -1.0323   -0.7500    0.0000 C   0  0  0  0  0  0  0  0  0  0  0  0
   -2.2841   -1.5763    0.0000 C   0  0  0  0  0  0  0  0  0  0  0  0
   -3.5718   -0.8070    0.0000 C   0  0  0  0  0  0  0  0  0  0  0  0
   -2.4186   -3.0703    0.0000 C   0  0  0  0  0  0  0  0  0  0  0  0
   -1.3344   -4.1069    0.0000 C   0  0  0  0  0  0  0  0  0  0  0  0
    0.1520   -3.9056    0.0000 C   0  0  0  0  0  0  0  0  0  0  0  0
    1.1389   -5.0352    0.0000 C   0  0  0  0  0  0  0  0  0  0  0  0
    0.8051   -6.4976    0.0000 C   0  0  0  0  0  0  0  0  0  0  0  0
    2.5182   -4.4456    0.0000 C   0  0  0  0  0  0  0  0  0  0  0  0
    3.8059   -5.2150    0.0000 O   0  0  0  0  0  0  0  0  0  0  0  0
    2.3838   -2.9517    0.0000 O   0  0  0  0  0  0  0  0  0  0  0  0
    0.9214   -2.6179    0.0000 C   0  0  0  0  0  0  0  0  0  0  0  0
    0.3943   -1.2135    0.0000 C   0  0  0  0  0  0  0  0  0  0  0  0
  1  2  2  0
  2  3  1  0
  3  4  2  0
  3  5  1  0
  6  5  1  6
  6  7  1  0
  7  8  2  0
  7  9  1  0
  9 10  1  0
 11 10  1  6
 11 12  1  0
 12 13  2  0
 12 14  1  0
 14 15  2  0
 14 16  1  0
 17 16  1  1
 17 18  1  0
 18  2  1  6
 18  6  1  0
 17 11  1  0
M  END
$$$$
1
     RDKit          2D

 17 19  0  0  0  0  0  0  0  0999 V2000
    2.7760    0.0000    0.0000 C   0  0  0  0  0  0  0  0  0  0  0  0
    1.2760    0.0000    0.0000 C   0  0  0  0  0  0  0  0  0  0  0  0
    0.3943    1.2135    0.0000 C   0  0  0  0  0  0  0  0  0  0  0  0
   -1.0323    0.7500    0.0000 C   0  0  0  0  0  0  0  0  0  0  0  0
   -1.0323   -0.7500    0.0000 C   0  0  0  0  0  0  0  0  0  0  0  0
   -2.2841   -1.5763    0.0000 C   0  0  0  0  0  0  0  0  0  0  0  0
   -3.5718   -0.8070    0.0000 C   0  0  0  0  0  0  0  0  0  0  0  0
   -2.4186   -3.0703    0.0000 C   0  0  0  0  0  0  0  0  0  0  0  0
   -1.3344   -4.1069    0.0000 C   0  0  0  0  0  0  0  0  0  0  0  0
    0.1520   -3.9056    0.0000 C   0  0  0  0  0  0  0  0  0  0  0  0
    1.1389   -5.0352    0.0000 C   0  0  0  0  0  0  0  0  0  0  0  0
    0.8051   -6.4976    0.0000 C   0  0  0  0  0  0  0  0  0  0  0  0
    2.5182   -4.4456    0.0000 C   0  0  0  0  0  0  0  0  0  0  0  0
    3.8059   -5.2150    0.0000 O   0  0  0  0  0  0  0  0  0  0  0  0
    2.3838   -2.9517    0.0000 O   0  0  0  0  0  0  0  0  0  0  0  0
    0.9214   -2.6179    0.0000 C   0  0  0  0  0  0  0  0  0  0  0  0
    0.3943   -1.2135    0.0000 C   0  0  0  0  0  0  0  0  0  0  0  0
  1  2  2  0
  2  3  1  0
  3  4  1  0
  5  4  1  6
  5  6  1  0
  6  7  2  0
  6  8  1  0
  8  9  1  0
 10  9  1  6
 10 11  1  0
 11 12  2  0
 11 13  1  0
 13 14  2  0
 13 15  1  0
 16 15  1  1
 16 17  1  0
 17  2  1  6
 17  5  1  0
 16 10  1  0
M  END
$$$$
7
     RDKit          2D

 37 44  0  0  0  0  0  0  0  0999 V2000
   -0.1901   -6.6125    0.0000 C   0  0  0  0  0  0  0  0  0  0  0  0
   -0.6322   -5.1791    0.0000 C   0  0  0  0  0  0  0  0  0  0  0  0
    0.2675   -3.9789    0.0000 C   0  0  0  0  0  0  0  0  0  0  0  0
    1.7674   -4.0013    0.0000 O   0  0  0  0  0  0  0  0  0  0  0  0
   -0.5959   -2.7523    0.0000 O   0  0  0  0  0  0  0  0  0  0  0  0
   -2.0293   -3.1945    0.0000 C   0  0  0  0  0  0  0  0  0  0  0  0
   -3.1879   -2.2418    0.0000 C   0  0  0  0  0  0  0  0  0  0  0  0
   -4.6551   -2.5537    0.0000 C   0  0  0  0  0  0  0  0  0  0  0  0
   -5.4051   -1.2546    0.0000 C   0  0  0  0  0  0  0  0  0  0  0  0
   -4.4014   -0.1399    0.0000 C   0  0  0  0  0  0  0  0  0  0  0  0
   -4.7133    1.3273    0.0000 O   0  0  0  0  0  0  0  0  0  0  0  0
   -3.0311   -0.7500    0.0000 C   0  0  0  0  0  0  0  0  0  0  0  0
   -3.0311    0.7500    0.0000 C   0  0  0  0  0  0  0  0  0  0  0  0
   -1.7321    1.5000    0.0000 C   0  0  0  0  0  0  0  0  0  0  0  0
   -0.4330    0.7500    0.0000 C   0  0  0  0  0  0  0  0  0  0  0  0
    0.8660    0.0000    0.0000 O   0  0  0  0  0  0  0  0  0  0  0  0
   -0.4330   -0.7500    0.0000 C   0  0  0  0  0  0  0  0  0  0  0  0
    0.9936   -1.2135    0.0000 C   0  0  0  0  0  0  0  0  0  0  0  0
    1.8752   -0.0000    0.0000 C   0  0  0  0  0  0  0  0  0  0  0  0
    3.3737   -0.0673    0.0000 C   0  0  0  0  0  0  0  0  0  0  0  0
    3.9633   -1.4466    0.0000 C   0  0  0  0  0  0  0  0  0  0  0  0
    4.3606    1.0623    0.0000 C   0  0  0  0  0  0  0  0  0  0  0  0
    4.0928    2.5382    0.0000 C   0  0  0  0  0  0  0  0  0  0  0  0
    2.7719    3.2490    0.0000 C   0  0  0  0  0  0  0  0  0  0  0  0
    2.6375    4.7430    0.0000 C   0  0  0  0  0  0  0  0  0  0  0  0
    3.7671    5.7299    0.0000 C   0  0  0  0  0  0  0  0  0  0  0  0
    1.1751    5.0768    0.0000 C   0  0  0  0  0  0  0  0  0  0  0  0
    0.5855    6.4560    0.0000 O   0  0  0  0  0  0  0  0  0  0  0  0
    0.4057    3.7891    0.0000 O   0  0  0  0  0  0  0  0  0  0  0  0
    1.3926    2.6595    0.0000 C   0  0  0  0  0  0  0  0  0  0  0  0
    0.9936    1.2135    0.0000 C   0  0  0  0  0  0  0  0  0  0  0  0
   -1.7321   -1.5000    0.0000 O   0  0  0  0  0  0  0  0  0  0  0  0
   -5.3261   -3.8952    0.0000 C   0  0  0  0  0  0  0  0  0  0  0  0
   -6.8259   -3.8728    0.0000 C   0  0  0  0  0  0  0  0  0  0  0  0
   -4.6955   -5.2563    0.0000 C   0  0  0  0  0  0  0  0  0  0  0  0
   -3.2383   -5.6119    0.0000 C   0  0  0  0  0  0  0  0  0  0  0  0
   -2.0517   -4.6943    0.0000 C   0  0  0  0  0  0  0  0  0  0  0  0
  1  2  2  0
  2  3  1  0
  3  4  2  0
  3  5  1  0
  6  5  1  1
  6  7  1  0
  7  8  1  0
  8  9  1  6
  9 10  1  0
 10 11  2  0
 10 12  1  0
 12 13  1  6
 13 14  1  0
 15 14  1  6
 15 16  1  0
 16 17  1  0
 17 18  1  1
 19 18  1  6
 19 20  1  0
 20 21  2  0
 20 22  1  0
 22 23  1  0
 24 23  1  6
 24 25  1  0
 25 26  2  0
 25 27  1  0
 27 28  2  0
 27 29  1  0
 30 29  1  1
 30 31  1  0
 17 32  1  0
  8 33  1  0
 33 34  2  0
 33 35  1  0
 35 36  1  0
 37 36  1  6
 37  2  1  0
 37  6  1  0
  7 12  1  6
 17 15  1  0
 31 19  1  6
 32 12  1  0
 31 15  1  0
 30 24  1  0
M  END
$$$$
11
     RDKit          2D

 38 45  0  0  0  0  0  0  0  0999 V2000
   -7.5519    0.5514    0.0000 C   0  0  0  0  0  0  0  0  0  0  0  0
   -6.0553    0.6523    0.0000 C   0  0  0  0  0  0  0  0  0  0  0  0
   -5.2572    1.9224    0.0000 C   0  0  0  0  0  0  0  0  0  0  0  0
   -5.8157    3.3146    0.0000 O   0  0  0  0  0  0  0  0  0  0  0  0
   -3.8027    1.5559    0.0000 O   0  0  0  0  0  0  0  0  0  0  0  0
   -3.7018    0.0593    0.0000 C   0  0  0  0  0  0  0  0  0  0  0  0
   -2.3972   -0.6810    0.0000 C   0  0  0  0  0  0  0  0  0  0  0  0
   -2.1625   -2.1625    0.0000 C   0  0  0  0  0  0  0  0  0  0  0  0
   -0.6810   -2.3972    0.0000 C   0  0  0  0  0  0  0  0  0  0  0  0
   -0.0000   -1.0607    0.0000 C   0  0  0  0  0  0  0  0  0  0  0  0
    1.0607    0.0000    0.0000 O   0  0  0  0  0  0  0  0  0  0  0  0
    0.0000    1.0607    0.0000 O   0  0  0  0  0  0  0  0  0  0  0  0
   -1.0607    0.0000    0.0000 C   0  0  0  0  0  0  0  0  0  0  0  0
    0.4063    0.3931    0.0000 C   0  0  0  0  0  0  0  0  0  0  0  0
    0.3702    0.3834    0.0000 C   0  0  0  0  0  0  0  0  0  0  0  0
    1.8371    0.7765    0.0000 C   0  0  0  0  0  0  0  0  0  0  0  0
    1.4489   -0.6724    0.0000 O   0  0  0  0  0  0  0  0  0  0  0  0
    2.3747    2.1768    0.0000 C   0  0  0  0  0  0  0  0  0  0  0  0
    1.5577    3.4348    0.0000 O   0  0  0  0  0  0  0  0  0  0  0  0
    3.8726    2.0983    0.0000 C   0  0  0  0  0  0  0  0  0  0  0  0
    4.2608    0.6494    0.0000 C   0  0  0  0  0  0  0  0  0  0  0  0
    5.6839    0.1753    0.0000 C   0  0  0  0  0  0  0  0  0  0  0  0
    6.7286    1.2517    0.0000 C   0  0  0  0  0  0  0  0  0  0  0  0
    6.2005   -1.2330    0.0000 C   0  0  0  0  0  0  0  0  0  0  0  0
    5.4215   -2.5149    0.0000 C   0  0  0  0  0  0  0  0  0  0  0  0
    3.9336   -2.7051    0.0000 C   0  0  0  0  0  0  0  0  0  0  0  0
    3.2727   -4.0517    0.0000 C   0  0  0  0  0  0  0  0  0  0  0  0
    3.9736   -5.3778    0.0000 C   0  0  0  0  0  0  0  0  0  0  0  0
    1.7878   -3.8392    0.0000 C   0  0  0  0  0  0  0  0  0  0  0  0
    0.7431   -4.9156    0.0000 O   0  0  0  0  0  0  0  0  0  0  0  0
    1.5310   -2.3613    0.0000 O   0  0  0  0  0  0  0  0  0  0  0  0
    2.8572   -1.6604    0.0000 C   0  0  0  0  0  0  0  0  0  0  0  0
    3.0028   -0.1675    0.0000 C   0  0  0  0  0  0  0  0  0  0  0  0
   -3.1745   -3.2697    0.0000 C   0  0  0  0  0  0  0  0  0  0  0  0
   -2.6161   -4.6619    0.0000 C   0  0  0  0  0  0  0  0  0  0  0  0
   -4.6711   -3.1688    0.0000 C   0  0  0  0  0  0  0  0  0  0  0  0
   -5.5254   -1.9358    0.0000 C   0  0  0  0  0  0  0  0  0  0  0  0
   -5.0940   -0.4992    0.0000 C   0  0  0  0  0  0  0  0  0  0  0  0
  1  2  2  0
  2  3  1  0
  3  4  2  0
  3  5  1  0
  6  5  1  6
  6  7  1  0
  7  8  1  1
  8  9  1  1
 10  9  1  6
 10 11  1  0
 11 12  1  0
 12 13  1  0
 13 14  1  1
 14 15  1  0
 16 15  1  1
 16 17  1  0
 16 18  1  0
 18 19  2  0
 18 20  1  0
 21 20  1  1
 21 22  1  0
 22 23  2  0
 22 24  1  0
 24 25  1  0
 26 25  1  1
 26 27  1  0
 27 28  2  0
 27 29  1  0
 29 30  2  0
 29 31  1  0
 32 31  1  6
 32 33  1  0
  8 34  1  0
 34 35  2  0
 34 36  1  0
 36 37  1  0
 38 37  1  1
 38  2  1  0
 38  6  1  0
 13  7  1  0
 33 16  1  1
 13 10  1  0
 33 21  1  0
 17 10  1  0
 32 26  1  0
M  END
$$$$
8
     RDKit          2D

 37 44  0  0  0  0  0  0  0  0999 V2000
   -4.1976    4.8014    0.0000 C   0  0  0  0  0  0  0  0  0  0  0  0
   -2.7036    4.6669    0.0000 C   0  0  0  0  0  0  0  0  0  0  0  0
   -1.9343    5.9546    0.0000 C   0  0  0  0  0  0  0  0  0  0  0  0
   -0.4479    6.1559    0.0000 C   0  0  0  0  0  0  0  0  0  0  0  0
    0.6363    5.1193    0.0000 C   0  0  0  0  0  0  0  0  0  0  0  0
    2.0987    5.4531    0.0000 C   0  0  0  0  0  0  0  0  0  0  0  0
    2.6882    6.8324    0.0000 C   0  0  0  0  0  0  0  0  0  0  0  0
    2.8681    4.1655    0.0000 C   0  0  0  0  0  0  0  0  0  0  0  0
    4.3620    4.0310    0.0000 O   0  0  0  0  0  0  0  0  0  0  0  0
    1.8812    3.0358    0.0000 O   0  0  0  0  0  0  0  0  0  0  0  0
    0.5019    3.6254    0.0000 C   0  0  0  0  0  0  0  0  0  0  0  0
   -0.7500    2.7990    0.0000 C   0  0  0  0  0  0  0  0  0  0  0  0
   -2.1766    3.2626    0.0000 C   0  0  0  0  0  0  0  0  0  0  0  0
   -3.0583    2.0490    0.0000 C   0  0  0  0  0  0  0  0  0  0  0  0
   -2.1766    0.8355    0.0000 C   0  0  0  0  0  0  0  0  0  0  0  0
   -2.1766   -0.6645    0.0000 O   0  0  0  0  0  0  0  0  0  0  0  0
   -0.7500   -1.2990    0.0000 C   0  0  0  0  0  0  0  0  0  0  0  0
   -1.2135   -2.7256    0.0000 C   0  0  0  0  0  0  0  0  0  0  0  0
    0.0000   -3.6073    0.0000 C   0  0  0  0  0  0  0  0  0  0  0  0
   -0.0673   -5.1058    0.0000 C   0  0  0  0  0  0  0  0  0  0  0  0
   -1.4466   -5.6953    0.0000 C   0  0  0  0  0  0  0  0  0  0  0  0
    1.0623   -6.0927    0.0000 C   0  0  0  0  0  0  0  0  0  0  0  0
    2.5382   -5.8249    0.0000 C   0  0  0  0  0  0  0  0  0  0  0  0
    3.2490   -4.5040    0.0000 C   0  0  0  0  0  0  0  0  0  0  0  0
    4.7430   -4.3695    0.0000 C   0  0  0  0  0  0  0  0  0  0  0  0
    5.7299   -5.4991    0.0000 C   0  0  0  0  0  0  0  0  0  0  0  0
    5.0768   -2.9071    0.0000 C   0  0  0  0  0  0  0  0  0  0  0  0
    6.4560   -2.3176    0.0000 O   0  0  0  0  0  0  0  0  0  0  0  0
    3.7891   -2.1378    0.0000 O   0  0  0  0  0  0  0  0  0  0  0  0
    2.6595   -3.1247    0.0000 C   0  0  0  0  0  0  0  0  0  0  0  0
    1.2135   -2.7256    0.0000 C   0  0  0  0  0  0  0  0  0  0  0  0
    0.7500   -1.2990    0.0000 C   0  0  0  0  0  0  0  0  0  0  0  0
    2.2418   -1.4558    0.0000 O   0  0  0  0  0  0  0  0  0  0  0  0
    1.5000    0.0000    0.0000 C   0  0  0  0  0  0  0  0  0  0  0  0
    0.7500    1.2990    0.0000 C   0  0  0  0  0  0  0  0  0  0  0  0
   -0.7500    1.2990    0.0000 C   0  0  0  0  0  0  0  0  0  0  0  0
   -1.5000    0.0000    0.0000 O   0  0  0  0  0  0  0  0  0  0  0  0
  1  2  2  0
  2  3  1  0
  3  4  1  0
  5  4  1  1
  5  6  1  0
  6  7  2  0
  6  8  1  0
  8  9  2  0
  8 10  1  0
 11 10  1  6
 11 12  1  0
 12 13  1  0
 13 14  1  1
 14 15  2  0
 15 16  1  0
 16 17  1  0
 17 18  1  6
 19 18  1  6
 19 20  1  0
 20 21  2  0
 20 22  1  0
 22 23  1  0
 24 23  1  6
 24 25  1  0
 25 26  2  0
 25 27  1  0
 27 28  2  0
 27 29  1  0
 30 29  1  1
 30 31  1  0
 31 32  1  0
 32 33  1  6
 32 34  1  0
 34 35  1  0
 36 35  1  1
 36 37  1  0
 13  2  1  0
 36 15  1  0
 11  5  1  0
 12 36  1  1
 32 17  1  0
 37 17  1  0
 31 19  1  6
 30 24  1  0
M  END
$$$$
12
     RDKit          2D

 38 45  0  0  0  0  0  0  0  0999 V2000
   -4.1976    4.8014    0.0000 C   0  0  0  0  0  0  0  0  0  0  0  0
   -2.7036    4.6669    0.0000 C   0  0  0  0  0  0  0  0  0  0  0  0
   -1.9343    5.9546    0.0000 C   0  0  0  0  0  0  0  0  0  0  0  0
   -0.4479    6.1559    0.0000 C   0  0  0  0  0  0  0  0  0  0  0  0
    0.6363    5.1193    0.0000 C   0  0  0  0  0  0  0  0  0  0  0  0
    2.0987    5.4531    0.0000 C   0  0  0  0  0  0  0  0  0  0  0  0
    2.6882    6.8324    0.0000 C   0  0  0  0  0  0  0  0  0  0  0  0
    2.8681    4.1655    0.0000 C   0  0  0  0  0  0  0  0  0  0  0  0
    4.3620    4.0310    0.0000 O   0  0  0  0  0  0  0  0  0  0  0  0
    1.8812    3.0358    0.0000 O   0  0  0  0  0  0  0  0  0  0  0  0
    0.5019    3.6254    0.0000 C   0  0  0  0  0  0  0  0  0  0  0  0
   -0.7500    2.7990    0.0000 C   0  0  0  0  0  0  0  0  0  0  0  0
   -2.1766    3.2626    0.0000 C   0  0  0  0  0  0  0  0  0  0  0  0
   -3.0583    2.0490    0.0000 C   0  0  0  0  0  0  0  0  0  0  0  0
   -2.1766    0.8355    0.0000 C   0  0  0  0  0  0  0  0  0  0  0  0
   -2.1766   -0.6645    0.0000 O   0  0  0  0  0  0  0  0  0  0  0  0
   -0.7500   -1.2990    0.0000 C   0  0  0  0  0  0  0  0  0  0  0  0
   -1.2135   -2.7256    0.0000 C   0  0  0  0  0  0  0  0  0  0  0  0
    0.0000   -3.6073    0.0000 C   0  0  0  0  0  0  0  0  0  0  0  0
   -0.0673   -5.1058    0.0000 C   0  0  0  0  0  0  0  0  0  0  0  0
   -1.4466   -5.6953    0.0000 C   0  0  0  0  0  0  0  0  0  0  0  0
    1.0623   -6.0927    0.0000 C   0  0  0  0  0  0  0  0  0  0  0  0
    2.5382   -5.8249    0.0000 C   0  0  0  0  0  0  0  0  0  0  0  0
    3.2490   -4.5040    0.0000 C   0  0  0  0  0  0  0  0  0  0  0  0
    4.7430   -4.3695    0.0000 C   0  0  0  0  0  0  0  0  0  0  0  0
    5.7299   -5.4991    0.0000 C   0  0  0  0  0  0  0  0  0  0  0  0
    5.0768   -2.9071    0.0000 C   0  0  0  0  0  0  0  0  0  0  0  0
    6.4560   -2.3176    0.0000 O   0  0  0  0  0  0  0  0  0  0  0  0
    3.7891   -2.1378    0.0000 O   0  0  0  0  0  0  0  0  0  0  0  0
    2.6595   -3.1247    0.0000 C   0  0  0  0  0  0  0  0  0  0  0  0
    1.2135   -2.7256    0.0000 C   0  0  0  0  0  0  0  0  0  0  0  0
    0.7500   -1.2990    0.0000 C   0  0  0  0  0  0  0  0  0  0  0  0
    2.2418   -1.4558    0.0000 O   0  0  0  0  0  0  0  0  0  0  0  0
    3.1235   -0.2423    0.0000 O   0  0  0  0  0  0  0  0  0  0  0  0
    1.5000    0.0000    0.0000 C   0  0  0  0  0  0  0  0  0  0  0  0
    0.7500    1.2990    0.0000 C   0  0  0  0  0  0  0  0  0  0  0  0
   -0.7500    1.2990    0.0000 C   0  0  0  0  0  0  0  0  0  0  0  0
   -1.5000    0.0000    0.0000 O   0  0  0  0  0  0  0  0  0  0  0  0
  1  2  2  0
  2  3  1  0
  3  4  1  0
  5  4  1  1
  5  6  1  0
  6  7  2  0
  6  8  1  0
  8  9  2  0
  8 10  1  0
 11 10  1  6
 11 12  1  0
 12 13  1  0
 13 14  1  1
 14 15  2  0
 15 16  1  0
 16 17  1  0
 17 18  1  6
 19 18  1  6
 19 20  1  0
 20 21  2  0
 20 22  1  0
 22 23  1  0
 24 23  1  6
 24 25  1  0
 25 26  2  0
 25 27  1  0
 27 28  2  0
 27 29  1  0
 30 29  1  1
 30 31  1  0
 31 32  1  0
 32 33  1  6
 33 34  1  0
 32 35  1  0
 35 36  1  0
 37 36  1  1
 37 38  1  0
 13  2  1  0
 37 15  1  0
 11  5  1  0
 12 37  1  1
 32 17  1  0
 38 17  1  0
 31 19  1  6
 30 24  1  0
M  END
$$$$
9
     RDKit          2D

 38 45  0  0  0  0  0  0  0  0999 V2000
    2.6882    6.8324    0.0000 C   0  0  0  0  0  0  0  0  0  0  0  0
    2.0987    5.4531    0.0000 C   0  0  0  0  0  0  0  0  0  0  0  0
    2.8681    4.1655    0.0000 C   0  0  0  0  0  0  0  0  0  0  0  0
    4.3620    4.0310    0.0000 O   0  0  0  0  0  0  0  0  0  0  0  0
    1.8812    3.0358    0.0000 O   0  0  0  0  0  0  0  0  0  0  0  0
    0.5019    3.6254    0.0000 C   0  0  0  0  0  0  0  0  0  0  0  0
   -0.7500    2.7990    0.0000 C   0  0  0  0  0  0  0  0  0  0  0  0
   -2.1766    3.2626    0.0000 C   0  0  0  0  0  0  0  0  0  0  0  0
   -3.0583    2.0490    0.0000 C   0  0  0  0  0  0  0  0  0  0  0  0
   -2.1766    0.8355    0.0000 C   0  0  0  0  0  0  0  0  0  0  0  0
   -3.6032    0.3720    0.0000 O   0  0  0  0  0  0  0  0  0  0  0  0
   -2.1766   -0.6645    0.0000 O   0  0  0  0  0  0  0  0  0  0  0  0
   -0.7500   -1.2990    0.0000 C   0  0  0  0  0  0  0  0  0  0  0  0
   -1.2135   -2.7256    0.0000 C   0  0  0  0  0  0  0  0  0  0  0  0
    0.0000   -3.6073    0.0000 C   0  0  0  0  0  0  0  0  0  0  0  0
   -0.0673   -5.1058    0.0000 C   0  0  0  0  0  0  0  0  0  0  0  0
   -1.4466   -5.6953    0.0000 C   0  0  0  0  0  0  0  0  0  0  0  0
    1.0623   -6.0927    0.0000 C   0  0  0  0  0  0  0  0  0  0  0  0
    2.5382   -5.8249    0.0000 C   0  0  0  0  0  0  0  0  0  0  0  0
    3.2490   -4.5040    0.0000 C   0  0  0  0  0  0  0  0  0  0  0  0
    4.7430   -4.3695    0.0000 C   0  0  0  0  0  0  0  0  0  0  0  0
    5.7299   -5.4991    0.0000 C   0  0  0  0  0  0  0  0  0  0  0  0
    5.0768   -2.9071    0.0000 C   0  0  0  0  0  0  0  0  0  0  0  0
    6.4560   -2.3176    0.0000 O   0  0  0  0  0  0  0  0  0  0  0  0
    3.7891   -2.1378    0.0000 O   0  0  0  0  0  0  0  0  0  0  0  0
    2.6595   -3.1247    0.0000 C   0  0  0  0  0  0  0  0  0  0  0  0
    1.2135   -2.7256    0.0000 C   0  0  0  0  0  0  0  0  0  0  0  0
    0.7500   -1.2990    0.0000 C   0  0  0  0  0  0  0  0  0  0  0  0
    2.2418   -1.4558    0.0000 O   0  0  0  0  0  0  0  0  0  0  0  0
    1.5000    0.0000    0.0000 C   0  0  0  0  0  0  0  0  0  0  0  0
    0.7500    1.2990    0.0000 C   0  0  0  0  0  0  0  0  0  0  0  0
   -0.7500    1.2990    0.0000 C   0  0  0  0  0  0  0  0  0  0  0  0
   -1.5000    0.0000    0.0000 O   0  0  0  0  0  0  0  0  0  0  0  0
   -2.7036    4.6669    0.0000 C   0  0  0  0  0  0  0  0  0  0  0  0
   -4.1976    4.8014    0.0000 C   0  0  0  0  0  0  0  0  0  0  0  0
   -1.9343    5.9546    0.0000 C   0  0  0  0  0  0  0  0  0  0  0  0
   -0.4479    6.1559    0.0000 C   0  0  0  0  0  0  0  0  0  0  0  0
    0.6363    5.1193    0.0000 C   0  0  0  0  0  0  0  0  0  0  0  0
  1  2  2  0
  2  3  1  0
  3  4  2  0
  3  5  1  0
  6  5  1  6
  6  7  1  0
  7  8  1  0
  8  9  1  1
  9 10  1  0
 10 11  1  0
 10 12  1  0
 12 13  1  0
 13 14  1  6
 15 14  1  6
 15 16  1  0
 16 17  2  0
 16 18  1  0
 18 19  1  0
 20 19  1  6
 20 21  1  0
 21 22  2  0
 21 23  1  0
 23 24  2  0
 23 25  1  0
 26 25  1  1
 26 27  1  0
 27 28  1  0
 28 29  1  6
 28 30  1  0
 30 31  1  0
 32 31  1  1
 32 33  1  0
  8 34  1  0
 34 35  2  0
 34 36  1  0
 36 37  1  0
 38 37  1  1
 38  2  1  0
 38  6  1  0
  7 32  1  1
 32 10  1  0
 28 13  1  0
 33 13  1  0
 27 15  1  6
 26 20  1  0
M  END
$$$$
10a
     RDKit          2D

 38 46  0  0  0  0  0  0  0  0999 V2000
   -4.7639   -1.5366    0.0000 C   0  0  0  0  0  0  0  0  0  0  0  0
   -4.3895   -0.0841    0.0000 C   0  0  0  0  0  0  0  0  0  0  0  0
   -5.5358    0.8834    0.0000 C   0  0  0  0  0  0  0  0  0  0  0  0
   -5.4941    2.3828    0.0000 C   0  0  0  0  0  0  0  0  0  0  0  0
   -4.2958    3.2851    0.0000 C   0  0  0  0  0  0  0  0  0  0  0  0
   -4.3886    4.7822    0.0000 C   0  0  0  0  0  0  0  0  0  0  0  0
   -5.6544    5.5871    0.0000 C   0  0  0  0  0  0  0  0  0  0  0  0
   -2.9934    5.3331    0.0000 C   0  0  0  0  0  0  0  0  0  0  0  0
   -2.6191    6.7856    0.0000 O   0  0  0  0  0  0  0  0  0  0  0  0
   -2.0383    4.1765    0.0000 O   0  0  0  0  0  0  0  0  0  0  0  0
   -2.8432    2.9107    0.0000 C   0  0  0  0  0  0  0  0  0  0  0  0
   -2.2302    1.5417    0.0000 C   0  0  0  0  0  0  0  0  0  0  0  0
   -2.9184    0.2089    0.0000 C   0  0  0  0  0  0  0  0  0  0  0  0
   -1.8635   -0.8575    0.0000 C   0  0  0  0  0  0  0  0  0  0  0  0
   -1.1281   -0.5500    0.0000 O   0  0  0  0  0  0  0  0  0  0  0  0
   -0.0000   -3.6073    0.0000 C   0  0  0  0  0  0  0  0  0  0  0  0
   -1.2135   -2.7256    0.0000 O   0  0  0  0  0  0  0  0  0  0  0  0
   -0.7500   -1.2990    0.0000 C   0  0  0  0  0  0  0  0  0  0  0  0
   -1.2135    0.1275    0.0000 C   0  0  0  0  0  0  0  0  0  0  0  0
    0.0000    1.0092    0.0000 C   0  0  0  0  0  0  0  0  0  0  0  0
   -0.0673    2.5077    0.0000 C   0  0  0  0  0  0  0  0  0  0  0  0
   -1.4466    3.0973    0.0000 C   0  0  0  0  0  0  0  0  0  0  0  0
    1.0623    3.4946    0.0000 C   0  0  0  0  0  0  0  0  0  0  0  0
    2.5382    3.2268    0.0000 C   0  0  0  0  0  0  0  0  0  0  0  0
    3.2490    1.9059    0.0000 C   0  0  0  0  0  0  0  0  0  0  0  0
    4.7430    1.7714    0.0000 C   0  0  0  0  0  0  0  0  0  0  0  0
    5.7299    2.9010    0.0000 C   0  0  0  0  0  0  0  0  0  0  0  0
    5.0768    0.3090    0.0000 C   0  0  0  0  0  0  0  0  0  0  0  0
    6.4560   -0.2805    0.0000 O   0  0  0  0  0  0  0  0  0  0  0  0
    3.7891   -0.4603    0.0000 O   0  0  0  0  0  0  0  0  0  0  0  0
    2.6595    0.5266    0.0000 C   0  0  0  0  0  0  0  0  0  0  0  0
    1.2135    0.1275    0.0000 C   0  0  0  0  0  0  0  0  0  0  0  0
    0.7500   -1.2990    0.0000 C   0  0  0  0  0  0  0  0  0  0  0  0
   -0.0227    0.0086    0.0000 C   0  0  0  0  0  0  0  0  0  0  0  0
   -0.0039   -0.0239    0.0000 C   0  0  0  0  0  0  0  0  0  0  0  0
   -0.7500    1.2990    0.0000 C   0  0  0  0  0  0  0  0  0  0  0  0
   -1.5000    0.0000    0.0000 O   0  0  0  0  0  0  0  0  0  0  0  0
    1.2135   -2.7256    0.0000 O   0  0  0  0  0  0  0  0  0  0  0  0
  1  2  2  0
  2  3  1  0
  3  4  1  0
  5  4  1  1
  5  6  1  0
  6  7  2  0
  6  8  1  0
  8  9  2  0
  8 10  1  0
 11 10  1  6
 11 12  1  0
 12 13  1  1
 13 14  1  1
 14 15  1  0
 16 14  1  1
 16 17  1  0
 17 18  1  0
 18 19  1  1
 20 19  1  1
 20 21  1  0
 21 22  2  0
 21 23  1  0
 23 24  1  0
 25 24  1  1
 25 26  1  0
 26 27  2  0
 26 28  1  0
 28 29  2  0
 28 30  1  0
 31 30  1  6
 31 32  1  0
 32 33  1  0
 33 34  1  1
 34 35  1  0
 36 35  1  6
 36 37  1  0
 33 38  1  0
 13  2  1  0
 36 16  1  0
 11  5  1  0
 36 12  1  0
 38 16  1  0
 33 18  1  0
 37 18  1  0
 32 20  1  1
 31 25  1  0
M  END
$$$$
10b
     RDKit          2D

 38 46  0  0  0  0  0  0  0  0999 V2000
   -4.7639   -1.5366    0.0000 C   0  0  0  0  0  0  0  0  0  0  0  0
   -4.3895   -0.0841    0.0000 C   0  0  0  0  0  0  0  0  0  0  0  0
   -5.5358    0.8834    0.0000 C   0  0  0  0  0  0  0  0  0  0  0  0
   -5.4941    2.3828    0.0000 C   0  0  0  0  0  0  0  0  0  0  0  0
   -4.2958    3.2851    0.0000 C   0  0  0  0  0  0  0  0  0  0  0  0
   -4.3886    4.7822    0.0000 C   0  0  0  0  0  0  0  0  0  0  0  0
   -5.6544    5.5871    0.0000 C   0  0  0  0  0  0  0  0  0  0  0  0
   -2.9934    5.3331    0.0000 C   0  0  0  0  0  0  0  0  0  0  0  0
   -2.6191    6.7856    0.0000 O   0  0  0  0  0  0  0  0  0  0  0  0
   -2.0383    4.1765    0.0000 O   0  0  0  0  0  0  0  0  0  0  0  0
   -2.8432    2.9107    0.0000 C   0  0  0  0  0  0  0  0  0  0  0  0
   -2.2302    1.5417    0.0000 C   0  0  0  0  0  0  0  0  0  0  0  0
   -2.9184    0.2089    0.0000 C   0  0  0  0  0  0  0  0  0  0  0  0
   -1.8635   -0.8575    0.0000 C   0  0  0  0  0  0  0  0  0  0  0  0
   -1.1281   -0.5500    0.0000 O   0  0  0  0  0  0  0  0  0  0  0  0
   -0.0000   -3.6073    0.0000 C   0  0  0  0  0  0  0  0  0  0  0  0
   -1.2135   -2.7256    0.0000 O   0  0  0  0  0  0  0  0  0  0  0  0
   -0.7500   -1.2990    0.0000 C   0  0  0  0  0  0  0  0  0  0  0  0
   -1.2135    0.1275    0.0000 C   0  0  0  0  0  0  0  0  0  0  0  0
    0.0000    1.0092    0.0000 C   0  0  0  0  0  0  0  0  0  0  0  0
   -0.0673    2.5077    0.0000 C   0  0  0  0  0  0  0  0  0  0  0  0
   -1.4466    3.0973    0.0000 C   0  0  0  0  0  0  0  0  0  0  0  0
    1.0623    3.4946    0.0000 C   0  0  0  0  0  0  0  0  0  0  0  0
    2.5382    3.2268    0.0000 C   0  0  0  0  0  0  0  0  0  0  0  0
    3.2490    1.9059    0.0000 C   0  0  0  0  0  0  0  0  0  0  0  0
    4.7430    1.7714    0.0000 C   0  0  0  0  0  0  0  0  0  0  0  0
    5.7299    2.9010    0.0000 C   0  0  0  0  0  0  0  0  0  0  0  0
    5.0768    0.3090    0.0000 C   0  0  0  0  0  0  0  0  0  0  0  0
    6.4560   -0.2805    0.0000 O   0  0  0  0  0  0  0  0  0  0  0  0
    3.7891   -0.4603    0.0000 O   0  0  0  0  0  0  0  0  0  0  0  0
    2.6595    0.5266    0.0000 C   0  0  0  0  0  0  0  0  0  0  0  0
    1.2135    0.1275    0.0000 C   0  0  0  0  0  0  0  0  0  0  0  0
    0.7500   -1.2990    0.0000 C   0  0  0  0  0  0  0  0  0  0  0  0
   -0.0227    0.0086    0.0000 C   0  0  0  0  0  0  0  0  0  0  0  0
   -0.0039   -0.0239    0.0000 C   0  0  0  0  0  0  0  0  0  0  0  0
   -0.7500    1.2990    0.0000 C   0  0  0  0  0  0  0  0  0  0  0  0
   -1.5000    0.0000    0.0000 O   0  0  0  0  0  0  0  0  0  0  0  0
    1.2135   -2.7256    0.0000 O   0  0  0  0  0  0  0  0  0  0  0  0
  1  2  2  0
  2  3  1  0
  3  4  1  0
  5  4  1  1
  5  6  1  0
  6  7  2  0
  6  8  1  0
  8  9  2  0
  8 10  1  0
 11 10  1  6
 11 12  1  0
 12 13  1  1
 13 14  1  1
 14 15  1  0
 16 14  1  1
 16 17  1  0
 17 18  1  0
 18 19  1  1
 20 19  1  1
 20 21  1  0
 21 22  2  0
 21 23  1  0
 23 24  1  0
 25 24  1  1
 25 26  1  0
 26 27  2  0
 26 28  1  0
 28 29  2  0
 28 30  1  0
 31 30  1  6
 31 32  1  0
 32 33  1  0
 33 34  1  1
 34 35  1  0
 36 35  1  6
 36 37  1  0
 33 38  1  0
 13  2  1  0
 36 16  1  0
 11  5  1  0
 36 12  1  0
 38 16  1  0
 33 18  1  0
 37 18  1  0
 32 20  1  1
 31 25  1  0
M  END
$$$$
13
     RDKit          2D

 38 43  0  0  0  0  0  0  0  0999 V2000
   -1.7979    5.5335    0.0000 C   0  0  0  0  0  0  0  0  0  0  0  0
   -1.3344    4.1069    0.0000 C   0  0  0  0  0  0  0  0  0  0  0  0
    0.1520    3.9056    0.0000 C   0  0  0  0  0  0  0  0  0  0  0  0
    0.9214    2.6179    0.0000 C   0  0  0  0  0  0  0  0  0  0  0  0
    0.3943    1.2135    0.0000 C   0  0  0  0  0  0  0  0  0  0  0  0
    1.2760    0.0000    0.0000 C   0  0  0  0  0  0  0  0  0  0  0  0
    2.7760    0.0000    0.0000 C   0  0  0  0  0  0  0  0  0  0  0  0
    0.3943   -1.2135    0.0000 C   0  0  0  0  0  0  0  0  0  0  0  0
    0.8578   -2.6401    0.0000 O   0  0  0  0  0  0  0  0  0  0  0  0
   -1.0323   -0.7500    0.0000 O   0  0  0  0  0  0  0  0  0  0  0  0
   -1.0323    0.7500    0.0000 C   0  0  0  0  0  0  0  0  0  0  0  0
   -2.2841    1.5763    0.0000 C   0  0  0  0  0  0  0  0  0  0  0  0
   -2.4186    3.0703    0.0000 C   0  0  0  0  0  0  0  0  0  0  0  0
   -3.8810    3.4041    0.0000 C   0  0  0  0  0  0  0  0  0  0  0  0
   -4.6503    2.1164    0.0000 C   0  0  0  0  0  0  0  0  0  0  0  0
   -6.1443    1.9820    0.0000 O   0  0  0  0  0  0  0  0  0  0  0  0
   -3.6634    0.9868    0.0000 C   0  0  0  0  0  0  0  0  0  0  0  0
   -2.4034    0.1730    0.0000 C   0  0  0  0  0  0  0  0  0  0  0  0
   -1.9613   -1.2604    0.0000 C   0  0  0  0  0  0  0  0  0  0  0  0
   -2.5439   -2.6426    0.0000 C   0  0  0  0  0  0  0  0  0  0  0  0
   -1.4443   -3.6628    0.0000 O   0  0  0  0  0  0  0  0  0  0  0  0
   -3.8787   -3.3269    0.0000 C   0  0  0  0  0  0  0  0  0  0  0  0
   -3.2279   -4.6784    0.0000 C   0  0  0  0  0  0  0  0  0  0  0  0
   -1.7415   -4.8797    0.0000 O   0  0  0  0  0  0  0  0  0  0  0  0
   -1.4736   -6.3556    0.0000 C   0  0  0  0  0  0  0  0  0  0  0  0
   -0.1222   -7.0064    0.0000 O   0  0  0  0  0  0  0  0  0  0  0  0
   -2.7945   -7.0664    0.0000 C   0  0  0  0  0  0  0  0  0  0  0  0
   -2.9959   -8.5528    0.0000 C   0  0  0  0  0  0  0  0  0  0  0  0
   -3.8787   -6.0298    0.0000 C   0  0  0  0  0  0  0  0  0  0  0  0
   -5.3411   -6.3636    0.0000 C   0  0  0  0  0  0  0  0  0  0  0  0
   -6.5139   -5.4284    0.0000 C   0  0  0  0  0  0  0  0  0  0  0  0
   -6.5139   -3.9284    0.0000 C   0  0  0  0  0  0  0  0  0  0  0  0
   -7.8653   -3.2775    0.0000 C   0  0  0  0  0  0  0  0  0  0  0  0
   -5.3411   -2.9931    0.0000 C   0  0  0  0  0  0  0  0  0  0  0  0
   -6.2468   -1.7974    0.0000 C   0  0  0  0  0  0  0  0  0  0  0  0
   -6.1721   -0.2993    0.0000 C   0  0  0  0  0  0  0  0  0  0  0  0
   -7.5543    0.2834    0.0000 O   0  0  0  0  0  0  0  0  0  0  0  0
   -5.1518    0.8003    0.0000 O   0  0  0  0  0  0  0  0  0  0  0  0
  1  2  2  0
  2  3  1  0
  3  4  1  0
  5  4  1  1
  5  6  1  0
  6  7  2  0
  6  8  1  0
  8  9  2  0
  8 10  1  0
 11 10  1  6
 11 12  1  0
 12 13  1  0
 13 14  1  1
 14 15  2  0
 15 16  1  0
 15 17  1  0
 17 18  1  1
 18 19  1  0
 19 20  1  0
 20 21  2  0
 22 20  1  6
 22 23  1  0
 23 24  1  1
 24 25  1  0
 25 26  2  0
 25 27  1  0
 27 28  2  0
 27 29  1  0
 29 30  1  6
 30 31  1  0
 31 32  1  0
 32 33  2  0
 32 34  1  0
 34 35  1  6
 35 36  1  0
 36 37  2  0
 36 38  1  0
 13  2  1  0
 38 17  1  0
 11  5  1  0
 12 17  1  1
 34 22  1  0
 29 23  1  0
M  END
$$$$
14
     RDKit          2D

 38 43  0  0  0  0  0  0  0  0999 V2000
   -1.7979    5.5335    0.0000 C   0  0  0  0  0  0  0  0  0  0  0  0
   -1.3344    4.1069    0.0000 C   0  0  0  0  0  0  0  0  0  0  0  0
    0.1520    3.9056    0.0000 C   0  0  0  0  0  0  0  0  0  0  0  0
    0.9214    2.6179    0.0000 C   0  0  0  0  0  0  0  0  0  0  0  0
    0.3943    1.2135    0.0000 C   0  0  0  0  0  0  0  0  0  0  0  0
    1.2760    0.0000    0.0000 C   0  0  0  0  0  0  0  0  0  0  0  0
    2.7760    0.0000    0.0000 C   0  0  0  0  0  0  0  0  0  0  0  0
    0.3943   -1.2135    0.0000 C   0  0  0  0  0  0  0  0  0  0  0  0
    0.8578   -2.6401    0.0000 O   0  0  0  0  0  0  0  0  0  0  0  0
   -1.0323   -0.7500    0.0000 O   0  0  0  0  0  0  0  0  0  0  0  0
   -1.0323    0.7500    0.0000 C   0  0  0  0  0  0  0  0  0  0  0  0
   -2.2841    1.5763    0.0000 C   0  0  0  0  0  0  0  0  0  0  0  0
   -2.4186    3.0703    0.0000 C   0  0  0  0  0  0  0  0  0  0  0  0
   -3.8810    3.4041    0.0000 C   0  0  0  0  0  0  0  0  0  0  0  0
   -4.6503    2.1164    0.0000 C   0  0  0  0  0  0  0  0  0  0  0  0
   -6.1127    2.4502    0.0000 O   0  0  0  0  0  0  0  0  0  0  0  0
   -7.4920    1.8607    0.0000 C   0  0  0  0  0  0  0  0  0  0  0  0
   -8.4789    2.9903    0.0000 O   0  0  0  0  0  0  0  0  0  0  0  0
   -8.2614    0.5730    0.0000 C   0  0  0  0  0  0  0  0  0  0  0  0
   -8.1269   -0.9210    0.0000 C   0  0  0  0  0  0  0  0  0  0  0  0
   -9.6254   -0.9883    0.0000 C   0  0  0  0  0  0  0  0  0  0  0  0
  -10.3362    0.3326    0.0000 C   0  0  0  0  0  0  0  0  0  0  0  0
  -10.5071   -2.2018    0.0000 C   0  0  0  0  0  0  0  0  0  0  0  0
  -10.1080   -3.6477    0.0000 C   0  0  0  0  0  0  0  0  0  0  0  0
   -8.7287   -4.2373    0.0000 C   0  0  0  0  0  0  0  0  0  0  0  0
   -8.4609   -5.7132    0.0000 C   0  0  0  0  0  0  0  0  0  0  0  0
   -9.4975   -6.7974    0.0000 C   0  0  0  0  0  0  0  0  0  0  0  0
   -6.9745   -5.9145    0.0000 C   0  0  0  0  0  0  0  0  0  0  0  0
   -6.2637   -7.2354    0.0000 O   0  0  0  0  0  0  0  0  0  0  0  0
   -6.3237   -4.5631    0.0000 O   0  0  0  0  0  0  0  0  0  0  0  0
   -7.4078   -3.5265    0.0000 C   0  0  0  0  0  0  0  0  0  0  0  0
   -7.1400   -2.0506    0.0000 C   0  0  0  0  0  0  0  0  0  0  0  0
   -5.6776   -2.3844    0.0000 C   0  0  0  0  0  0  0  0  0  0  0  0
   -5.5432   -3.8783    0.0000 O   0  0  0  0  0  0  0  0  0  0  0  0
   -4.2983   -1.7948    0.0000 C   0  0  0  0  0  0  0  0  0  0  0  0
   -3.5290   -0.5072    0.0000 C   0  0  0  0  0  0  0  0  0  0  0  0
   -3.6634    0.9868    0.0000 C   0  0  0  0  0  0  0  0  0  0  0  0
   -2.3758    0.2175    0.0000 O   0  0  0  0  0  0  0  0  0  0  0  0
  1  2  2  0
  2  3  1  0
  3  4  1  0
  5  4  1  1
  5  6  1  0
  6  7  2  0
  6  8  1  0
  8  9  2  0
  8 10  1  0
 11 10  1  6
 11 12  1  0
 12 13  1  0
 13 14  1  1
 14 15  2  0
 15 16  1  0
 16 17  1  0
 17 18  2  0
 17 19  1  0
 20 19  1  6
 20 21  1  0
 21 22  2  0
 21 23  1  0
 23 24  1  0
 25 24  1  6
 25 26  1  0
 26 27  2  0
 26 28  1  0
 28 29  2  0
 28 30  1  0
 31 30  1  1
 31 32  1  0
 32 33  1  6
 33 34  2  0
 33 35  1  0
 35 36  1  0
 36 37  1  0
 37 38  1  6
 13  2  1  0
 37 15  1  0
 11  5  1  0
 12 37  1  1
 32 20  1  0
 31 25  1  0
M  END
$$$$
5
     RDKit          2D

 38 44  0  0  0  0  0  0  0  0999 V2000
    5.8949   -1.9129    0.0000 C   0  0  0  0  0  0  0  0  0  0  0  0
    4.5156   -1.3233    0.0000 C   0  0  0  0  0  0  0  0  0  0  0  0
    3.2279   -2.0927    0.0000 C   0  0  0  0  0  0  0  0  0  0  0  0
    3.0935   -3.5866    0.0000 O   0  0  0  0  0  0  0  0  0  0  0  0
    2.0983   -1.1058    0.0000 O   0  0  0  0  0  0  0  0  0  0  0  0
    2.6879    0.2735    0.0000 C   0  0  0  0  0  0  0  0  0  0  0  0
    1.8615    1.5254    0.0000 C   0  0  0  0  0  0  0  0  0  0  0  0
    2.3250    2.9520    0.0000 C   0  0  0  0  0  0  0  0  0  0  0  0
    1.3213    4.0667    0.0000 C   0  0  0  0  0  0  0  0  0  0  0  0
   -0.1459    3.7548    0.0000 C   0  0  0  0  0  0  0  0  0  0  0  0
   -1.0062    4.9836    0.0000 O   0  0  0  0  0  0  0  0  0  0  0  0
   -0.6094    2.3282    0.0000 O   0  0  0  0  0  0  0  0  0  0  0  0
    0.3943    1.2135    0.0000 C   0  0  0  0  0  0  0  0  0  0  0  0
    1.2760   -0.0000    0.0000 C   0  0  0  0  0  0  0  0  0  0  0  0
    0.3943   -1.2135    0.0000 C   0  0  0  0  0  0  0  0  0  0  0  0
   -1.0323   -0.7500    0.0000 C   0  0  0  0  0  0  0  0  0  0  0  0
   -1.0323    0.7500    0.0000 O   0  0  0  0  0  0  0  0  0  0  0  0
   -1.0323   -2.2500    0.0000 C   0  0  0  0  0  0  0  0  0  0  0  0
    0.1812   -3.1317    0.0000 O   0  0  0  0  0  0  0  0  0  0  0  0
   -2.4589   -2.7135    0.0000 C   0  0  0  0  0  0  0  0  0  0  0  0
   -3.3405   -1.5000    0.0000 C   0  0  0  0  0  0  0  0  0  0  0  0
   -4.8390   -1.5673    0.0000 C   0  0  0  0  0  0  0  0  0  0  0  0
   -5.4286   -2.9466    0.0000 C   0  0  0  0  0  0  0  0  0  0  0  0
   -5.8259   -0.4377    0.0000 C   0  0  0  0  0  0  0  0  0  0  0  0
   -5.5581    1.0382    0.0000 C   0  0  0  0  0  0  0  0  0  0  0  0
   -4.2372    1.7490    0.0000 C   0  0  0  0  0  0  0  0  0  0  0  0
   -4.1028    3.2430    0.0000 C   0  0  0  0  0  0  0  0  0  0  0  0
   -5.2324    4.2299    0.0000 C   0  0  0  0  0  0  0  0  0  0  0  0
   -2.6404    3.5768    0.0000 C   0  0  0  0  0  0  0  0  0  0  0  0
   -2.2234    5.0176    0.0000 O   0  0  0  0  0  0  0  0  0  0  0  0
   -1.8710    2.2891    0.0000 O   0  0  0  0  0  0  0  0  0  0  0  0
   -2.8579    1.1595    0.0000 C   0  0  0  0  0  0  0  0  0  0  0  0
   -2.4589   -0.2865    0.0000 C   0  0  0  0  0  0  0  0  0  0  0  0
    3.7294    3.4790    0.0000 C   0  0  0  0  0  0  0  0  0  0  0  0
    3.8639    4.9730    0.0000 C   0  0  0  0  0  0  0  0  0  0  0  0
    5.0171    2.7097    0.0000 C   0  0  0  0  0  0  0  0  0  0  0  0
    5.2184    1.2233    0.0000 C   0  0  0  0  0  0  0  0  0  0  0  0
    4.1818    0.1391    0.0000 C   0  0  0  0  0  0  0  0  0  0  0  0
  1  2  2  0
  2  3  1  0
  3  4  2  0
  3  5  1  0
  6  5  1  6
  6  7  1  0
  7  8  1  0
  8  9  1  1
  9 10  1  0
 10 11  2  0
 10 12  1  0
 12 13  1  0
 13 14  1  6
 14 15  1  0
 16 15  1  1
 16 17  1  0
 16 18  1  0
 18 19  2  0
 18 20  1  0
 21 20  1  1
 21 22  1  0
 22 23  2  0
 22 24  1  0
 24 25  1  0
 26 25  1  1
 26 27  1  0
 27 28  2  0
 27 29  1  0
 29 30  2  0
 29 31  1  0
 32 31  1  6
 32 33  1  0
  8 34  1  0
 34 35  2  0
 34 36  1  0
 36 37  1  0
 38 37  1  1
 38  2  1  0
 38  6  1  0
  7 13  1  1
 33 16  1  1
 17 13  1  0
 33 21  1  0
 32 26  1  0
M  END
$$$$
