5
     RDKit          2D

 26 31  0  0  0  0  0  0  0  0999 V2000
    2.1135   -8.3542    0.0000 C   0  0  0  0  0  0  0  0  0  0  0  0
    0.8999   -7.4725    0.0000 O   0  0  0  0  0  0  0  0  0  0  0  0
    1.0567   -5.9808    0.0000 C   0  0  0  0  0  0  0  0  0  0  0  0
    2.4271   -5.3707    0.0000 O   0  0  0  0  0  0  0  0  0  0  0  0
   -0.1568   -5.0991    0.0000 C   0  0  0  0  0  0  0  0  0  0  0  0
   -0.0000   -3.6073    0.0000 C   0  0  0  0  0  0  0  0  0  0  0  0
    1.2135   -2.7256    0.0000 N   0  0  0  0  0  0  0  0  0  0  0  0
    0.7500   -1.2990    0.0000 C   0  0  0  0  0  0  0  0  0  0  0  0
    1.5000    0.0000    0.0000 C   0  0  0  0  0  0  0  0  0  0  0  0
    0.7500    1.2990    0.0000 C   0  0  0  0  0  0  0  0  0  0  0  0
   -0.7500    1.2990    0.0000 C   0  0  0  0  0  0  0  0  0  0  0  0
   -1.5000    0.0000    0.0000 C   0  0  0  0  0  0  0  0  0  0  0  0
   -0.7500   -1.2990    0.0000 C   0  0  0  0  0  0  0  0  0  0  0  0
   -1.2135   -2.7256    0.0000 C   0  0  0  0  0  0  0  0  0  0  0  0
   -2.4844   -2.4555    0.0000 C   0  0  0  0  0  0  0  0  0  0  0  0
   -2.3166   -2.4911    0.0000 C   0  0  0  0  0  0  0  0  0  0  0  0
   -3.5875   -2.2210    0.0000 N   0  0  0  0  0  0  0  0  0  0  0  0
   -4.9701   -2.8201    0.0000 C   0  0  0  0  0  0  0  0  0  0  0  0
   -5.2819   -4.2873    0.0000 C   0  0  0  0  0  0  0  0  0  0  0  0
   -4.1672   -5.2910    0.0000 C   0  0  0  0  0  0  0  0  0  0  0  0
   -4.1672   -6.7910    0.0000 O   0  0  0  0  0  0  0  0  0  0  0  0
   -2.7406   -7.2546    0.0000 C   0  0  0  0  0  0  0  0  0  0  0  0
   -1.8590   -6.0410    0.0000 C   0  0  0  0  0  0  0  0  0  0  0  0
   -2.7406   -4.8275    0.0000 C   0  0  0  0  0  0  0  0  0  0  0  0
   -1.5271   -5.7092    0.0000 C   0  0  0  0  0  0  0  0  0  0  0  0
   -2.5838   -3.3357    0.0000 C   0  0  0  0  0  0  0  0  0  0  0  0
  1  2  1  0
  2  3  1  0
  3  4  2  0
  3  5  1  0
  5  6  2  0
  6  7  1  0
  7  8  1  0
  8  9  2  0
  9 10  1  0
 10 11  2  0
 11 12  1  0
 12 13  2  0
 13 14  1  0
 14 15  1  6
 15 16  1  0
 16 17  1  0
 17 18  1  0
 18 19  1  0
 20 19  1  1
 20 21  1  0
 21 22  1  0
 22 23  1  0
 24 23  1  1
 24 25  1  0
 24 26  1  0
 25  5  1  0
 14  6  1  0
 26 17  1  6
 13  8  1  0
 26 14  1  0
 24 20  1  0
M  END
$$$$
19
     RDKit          2D

 26 30  0  0  0  0  0  0  0  0999 V2000
    2.1135   -8.3542    0.0000 C   0  0  0  0  0  0  0  0  0  0  0  0
    0.8999   -7.4725    0.0000 O   0  0  0  0  0  0  0  0  0  0  0  0
    1.0567   -5.9808    0.0000 C   0  0  0  0  0  0  0  0  0  0  0  0
    2.4271   -5.3707    0.0000 O   0  0  0  0  0  0  0  0  0  0  0  0
   -0.1568   -5.0991    0.0000 C   0  0  0  0  0  0  0  0  0  0  0  0
   -0.0000   -3.6073    0.0000 C   0  0  0  0  0  0  0  0  0  0  0  0
    1.2135   -2.7256    0.0000 N   0  0  0  0  0  0  0  0  0  0  0  0
    0.7500   -1.2990    0.0000 C   0  0  0  0  0  0  0  0  0  0  0  0
    1.5000    0.0000    0.0000 C   0  0  0  0  0  0  0  0  0  0  0  0
    0.7500    1.2990    0.0000 C   0  0  0  0  0  0  0  0  0  0  0  0
   -0.7500    1.2990    0.0000 C   0  0  0  0  0  0  0  0  0  0  0  0
   -1.5000    0.0000    0.0000 C   0  0  0  0  0  0  0  0  0  0  0  0
   -0.7500   -1.2990    0.0000 C   0  0  0  0  0  0  0  0  0  0  0  0
   -1.2135   -2.7256    0.0000 C   0  0  0  0  0  0  0  0  0  0  0  0
   -2.4844   -2.4555    0.0000 C   0  0  0  0  0  0  0  0  0  0  0  0
   -2.3166   -2.4911    0.0000 C   0  0  0  0  0  0  0  0  0  0  0  0
   -3.5875   -2.2210    0.0000 N   0  0  0  0  0  0  0  0  0  0  0  0
   -4.9701   -2.8201    0.0000 C   0  0  0  0  0  0  0  0  0  0  0  0
   -5.2819   -4.2873    0.0000 C   0  0  0  0  0  0  0  0  0  0  0  0
   -4.1672   -5.2910    0.0000 C   0  0  0  0  0  0  0  0  0  0  0  0
   -2.7406   -4.8275    0.0000 C   0  0  0  0  0  0  0  0  0  0  0  0
   -4.1110   -5.4376    0.0000 C   0  0  0  0  0  0  0  0  0  0  0  0
   -4.2677   -6.9294    0.0000 C   0  0  0  0  0  0  0  0  0  0  0  0
   -5.6381   -7.5395    0.0000 O   0  0  0  0  0  0  0  0  0  0  0  0
   -1.5271   -5.7092    0.0000 C   0  0  0  0  0  0  0  0  0  0  0  0
   -2.5838   -3.3357    0.0000 C   0  0  0  0  0  0  0  0  0  0  0  0
  1  2  1  0
  2  3  1  0
  3  4  2  0
  3  5  1  0
  5  6  2  0
  6  7  1  0
  7  8  1  0
  8  9  2  0
  9 10  1  0
 10 11  2  0
 11 12  1  0
 12 13  2  0
 13 14  1  0
 14 15  1  6
 15 16  1  0
 16 17  1  0
 17 18  1  0
 18 19  1  0
 19 20  2  0
 20 21  1  0
 21 22  1  1
 22 23  1  0
 23 24  1  0
 21 25  1  0
 21 26  1  0
 25  5  1  0
 14  6  1  0
 26 17  1  6
 13  8  1  0
 26 14  1  0
M  END
$$$$
20
     RDKit          2D

 37 42  0  0  0  0  0  0  0  0999 V2000
    2.1135   -8.3542    0.0000 C   0  0  0  0  0  0  0  0  0  0  0  0
    0.8999   -7.4725    0.0000 O   0  0  0  0  0  0  0  0  0  0  0  0
    1.0567   -5.9808    0.0000 C   0  0  0  0  0  0  0  0  0  0  0  0
    2.4271   -5.3707    0.0000 O   0  0  0  0  0  0  0  0  0  0  0  0
   -0.1568   -5.0991    0.0000 C   0  0  0  0  0  0  0  0  0  0  0  0
   -0.0000   -3.6073    0.0000 C   0  0  0  0  0  0  0  0  0  0  0  0
    1.2135   -2.7256    0.0000 N   0  0  0  0  0  0  0  0  0  0  0  0
    0.7500   -1.2990    0.0000 C   0  0  0  0  0  0  0  0  0  0  0  0
    1.5000    0.0000    0.0000 C   0  0  0  0  0  0  0  0  0  0  0  0
    0.7500    1.2990    0.0000 C   0  0  0  0  0  0  0  0  0  0  0  0
   -0.7500    1.2990    0.0000 C   0  0  0  0  0  0  0  0  0  0  0  0
   -1.5000    0.0000    0.0000 C   0  0  0  0  0  0  0  0  0  0  0  0
   -0.7500   -1.2990    0.0000 C   0  0  0  0  0  0  0  0  0  0  0  0
   -1.2135   -2.7256    0.0000 C   0  0  0  0  0  0  0  0  0  0  0  0
   -2.4844   -2.4555    0.0000 C   0  0  0  0  0  0  0  0  0  0  0  0
   -2.3166   -2.4911    0.0000 C   0  0  0  0  0  0  0  0  0  0  0  0
   -3.5875   -2.2210    0.0000 N   0  0  0  0  0  0  0  0  0  0  0  0
   -4.9701   -2.8201    0.0000 C   0  0  0  0  0  0  0  0  0  0  0  0
   -5.2819   -4.2873    0.0000 C   0  0  0  0  0  0  0  0  0  0  0  0
   -4.1672   -5.2910    0.0000 C   0  0  0  0  0  0  0  0  0  0  0  0
   -2.7406   -4.8275    0.0000 C   0  0  0  0  0  0  0  0  0  0  0  0
   -4.1110   -5.4376    0.0000 C   0  0  0  0  0  0  0  0  0  0  0  0
   -4.2677   -6.9294    0.0000 C   0  0  0  0  0  0  0  0  0  0  0  0
   -5.6381   -7.5395    0.0000 O   0  0  0  0  0  0  0  0  0  0  0  0
   -5.7949   -9.0313    0.0000 C   0  0  0  0  0  0  0  0  0  0  0  0
   -4.5813   -9.9130    0.0000 O   0  0  0  0  0  0  0  0  0  0  0  0
   -7.1652   -9.6414    0.0000 C   0  0  0  0  0  0  0  0  0  0  0  0
   -8.3787   -8.7597    0.0000 C   0  0  0  0  0  0  0  0  0  0  0  0
   -9.7490   -9.3698    0.0000 C   0  0  0  0  0  0  0  0  0  0  0  0
   -9.9058  -10.8616    0.0000 C   0  0  0  0  0  0  0  0  0  0  0  0
  -11.2761  -11.4717    0.0000 N   0  0  0  0  0  0  0  0  0  0  0  0
  -11.4329  -12.9635    0.0000 O   0  0  0  0  0  0  0  0  0  0  0  0
  -12.4897  -10.5900    0.0000 O   0  0  0  0  0  0  0  0  0  0  0  0
   -8.6923  -11.7433    0.0000 C   0  0  0  0  0  0  0  0  0  0  0  0
   -7.3220  -11.1332    0.0000 C   0  0  0  0  0  0  0  0  0  0  0  0
   -1.5271   -5.7092    0.0000 C   0  0  0  0  0  0  0  0  0  0  0  0
   -2.5838   -3.3357    0.0000 C   0  0  0  0  0  0  0  0  0  0  0  0
  1  2  1  0
  2  3  1  0
  3  4  2  0
  3  5  1  0
  5  6  2  0
  6  7  1  0
  7  8  1  0
  8  9  2  0
  9 10  1  0
 10 11  2  0
 11 12  1  0
 12 13  2  0
 13 14  1  0
 14 15  1  6
 15 16  1  0
 16 17  1  0
 17 18  1  0
 18 19  1  0
 19 20  2  0
 20 21  1  0
 21 22  1  1
 22 23  1  0
 23 24  1  0
 24 25  1  0
 25 26  2  0
 25 27  1  0
 27 28  1  0
 28 29  2  0
 29 30  1  0
 30 31  1  0
 31 32  2  0
 31 33  1  0
 30 34  2  0
 34 35  1  0
 21 36  1  0
 21 37  1  0
 36  5  1  0
 14  6  1  0
 37 17  1  6
 13  8  1  0
 37 14  1  0
 35 27  2  0
M  CHG  2  31   1  33  -1
M  END
$$$$
21
     RDKit          2D

 28 33  0  0  0  0  0  0  0  0999 V2000
    2.1135   -8.3542    0.0000 C   0  0  0  0  0  0  0  0  0  0  0  0
    0.8999   -7.4725    0.0000 O   0  0  0  0  0  0  0  0  0  0  0  0
    1.0567   -5.9808    0.0000 C   0  0  0  0  0  0  0  0  0  0  0  0
    2.4271   -5.3707    0.0000 O   0  0  0  0  0  0  0  0  0  0  0  0
   -0.1568   -5.0991    0.0000 C   0  0  0  0  0  0  0  0  0  0  0  0
   -0.0000   -3.6073    0.0000 C   0  0  0  0  0  0  0  0  0  0  0  0
    1.2135   -2.7256    0.0000 N   0  0  0  0  0  0  0  0  0  0  0  0
    0.7500   -1.2990    0.0000 C   0  0  0  0  0  0  0  0  0  0  0  0
    1.5000    0.0000    0.0000 C   0  0  0  0  0  0  0  0  0  0  0  0
    0.7500    1.2990    0.0000 C   0  0  0  0  0  0  0  0  0  0  0  0
   -0.7500    1.2990    0.0000 C   0  0  0  0  0  0  0  0  0  0  0  0
   -1.5000    0.0000    0.0000 C   0  0  0  0  0  0  0  0  0  0  0  0
   -0.7500   -1.2990    0.0000 C   0  0  0  0  0  0  0  0  0  0  0  0
   -1.2135   -2.7256    0.0000 C   0  0  0  0  0  0  0  0  0  0  0  0
   -2.4844   -2.4555    0.0000 C   0  0  0  0  0  0  0  0  0  0  0  0
   -2.3166   -2.4911    0.0000 C   0  0  0  0  0  0  0  0  0  0  0  0
   -3.5875   -2.2210    0.0000 N   0  0  0  0  0  0  0  0  0  0  0  0
   -4.9701   -2.8201    0.0000 C   0  0  0  0  0  0  0  0  0  0  0  0
   -6.0848   -1.8164    0.0000 C   0  0  0  0  0  0  0  0  0  0  0  0
   -7.1995   -0.8127    0.0000 N   0  0  0  0  0  0  0  0  0  0  0  0
   -5.2819   -4.2873    0.0000 C   0  0  0  0  0  0  0  0  0  0  0  0
   -4.1672   -5.2910    0.0000 C   0  0  0  0  0  0  0  0  0  0  0  0
   -4.1672   -6.7910    0.0000 O   0  0  0  0  0  0  0  0  0  0  0  0
   -2.7406   -7.2546    0.0000 C   0  0  0  0  0  0  0  0  0  0  0  0
   -1.8590   -6.0410    0.0000 C   0  0  0  0  0  0  0  0  0  0  0  0
   -2.7406   -4.8275    0.0000 C   0  0  0  0  0  0  0  0  0  0  0  0
   -1.5271   -5.7092    0.0000 C   0  0  0  0  0  0  0  0  0  0  0  0
   -2.5838   -3.3357    0.0000 C   0  0  0  0  0  0  0  0  0  0  0  0
  1  2  1  0
  2  3  1  0
  3  4  2  0
  3  5  1  0
  5  6  2  0
  6  7  1  0
  7  8  1  0
  8  9  2  0
  9 10  1  0
 10 11  2  0
 11 12  1  0
 12 13  2  0
 13 14  1  0
 14 15  1  6
 15 16  1  0
 16 17  1  0
 17 18  1  0
 18 19  1  0
 19 20  3  0
 18 21  1  0
 22 21  1  1
 22 23  1  0
 23 24  1  0
 24 25  1  0
 26 25  1  1
 26 27  1  0
 26 28  1  0
 27  5  1  0
 14  6  1  0
 28 17  1  6
 13  8  1  0
 28 14  1  0
 26 22  1  0
M  END
$$$$
22
     RDKit          2D

 28 33  0  0  0  0  0  0  0  0999 V2000
   -4.8211   -4.5787    0.0000 C   0  0  0  0  0  0  0  0  0  0  0  0
   -4.5092   -3.1115    0.0000 O   0  0  0  0  0  0  0  0  0  0  0  0
   -3.0826   -2.6480    0.0000 C   0  0  0  0  0  0  0  0  0  0  0  0
   -1.9679   -3.6517    0.0000 O   0  0  0  0  0  0  0  0  0  0  0  0
   -2.6252   -0.4960    0.0000 C   0  0  0  0  0  0  0  0  0  0  0  0
   -3.8855   -0.1771    0.0000 C   0  0  0  0  0  0  0  0  0  0  0  0
   -5.3772   -0.3338    0.0000 N   0  0  0  0  0  0  0  0  0  0  0  0
   -5.9873    1.0365    0.0000 C   0  0  0  0  0  0  0  0  0  0  0  0
   -7.4139    1.5000    0.0000 C   0  0  0  0  0  0  0  0  0  0  0  0
   -8.5286    0.4963    0.0000 O   0  0  0  0  0  0  0  0  0  0  0  0
   -9.9552    0.9598    0.0000 C   0  0  0  0  0  0  0  0  0  0  0  0
   -7.7258    2.9672    0.0000 C   0  0  0  0  0  0  0  0  0  0  0  0
   -6.6111    3.9709    0.0000 C   0  0  0  0  0  0  0  0  0  0  0  0
   -5.1845    3.5074    0.0000 C   0  0  0  0  0  0  0  0  0  0  0  0
   -4.8726    2.0402    0.0000 C   0  0  0  0  0  0  0  0  0  0  0  0
   -3.5736    1.2902    0.0000 C   0  0  0  0  0  0  0  0  0  0  0  0
   -4.3236    2.5892    0.0000 C   0  0  0  0  0  0  0  0  0  0  0  0
   -3.3199    3.7039    0.0000 C   0  0  0  0  0  0  0  0  0  0  0  0
   -1.8351    3.2209    0.0000 N   0  0  0  0  0  0  0  0  0  0  0  0
   -0.4086    3.6844    0.0000 C   0  0  0  0  0  0  0  0  0  0  0  0
    0.7062    2.6807    0.0000 C   0  0  0  0  0  0  0  0  0  0  0  0
    0.3943    1.2135    0.0000 C   0  0  0  0  0  0  0  0  0  0  0  0
    1.2760    0.0000    0.0000 O   0  0  0  0  0  0  0  0  0  0  0  0
    0.3943   -1.2135    0.0000 C   0  0  0  0  0  0  0  0  0  0  0  0
   -1.0323   -0.7500    0.0000 C   0  0  0  0  0  0  0  0  0  0  0  0
   -1.0323    0.7500    0.0000 C   0  0  0  0  0  0  0  0  0  0  0  0
   -1.8644   -0.2488    0.0000 C   0  0  0  0  0  0  0  0  0  0  0  0
   -2.1470    1.7537    0.0000 C   0  0  0  0  0  0  0  0  0  0  0  0
  1  2  1  0
  2  3  1  0
  3  4  2  0
  3  5  1  0
  5  6  2  0
  6  7  1  0
  7  8  1  0
  8  9  2  0
  9 10  1  0
 10 11  1  0
  9 12  1  0
 12 13  2  0
 13 14  1  0
 14 15  2  0
 15 16  1  0
 16 17  1  1
 17 18  1  0
 18 19  1  0
 19 20  1  0
 20 21  1  0
 22 21  1  6
 22 23  1  0
 23 24  1  0
 24 25  1  0
 26 25  1  6
 26 27  1  0
 26 28  1  0
 27  5  1  0
 16  6  1  0
 28 19  1  1
 15  8  1  0
 28 16  1  0
 26 22  1  0
M  END
$$$$
23
     RDKit          2D

 26 31  0  0  0  0  0  0  0  0999 V2000
    7.4898    6.6281    0.0000 C   0  0  0  0  0  0  0  0  0  0  0  0
    6.6081    5.4145    0.0000 O   0  0  0  0  0  0  0  0  0  0  0  0
    5.1163    5.5713    0.0000 C   0  0  0  0  0  0  0  0  0  0  0  0
    4.5062    6.9416    0.0000 C   0  0  0  0  0  0  0  0  0  0  0  0
    3.0144    7.0984    0.0000 C   0  0  0  0  0  0  0  0  0  0  0  0
    2.1328    5.8849    0.0000 C   0  0  0  0  0  0  0  0  0  0  0  0
    2.7429    4.5146    0.0000 C   0  0  0  0  0  0  0  0  0  0  0  0
    4.2346    4.3578    0.0000 C   0  0  0  0  0  0  0  0  0  0  0  0
    4.5465    2.8906    0.0000 N   0  0  0  0  0  0  0  0  0  0  0  0
    3.2475    2.1406    0.0000 C   0  0  0  0  0  0  0  0  0  0  0  0
    2.9356    0.6734    0.0000 C   0  0  0  0  0  0  0  0  0  0  0  0
    4.0503   -0.3303    0.0000 C   0  0  0  0  0  0  0  0  0  0  0  0
    3.7385   -1.7976    0.0000 O   0  0  0  0  0  0  0  0  0  0  0  0
    1.5090    0.2098    0.0000 C   0  0  0  0  0  0  0  0  0  0  0  0
    0.3943    1.2135    0.0000 C   0  0  0  0  0  0  0  0  0  0  0  0
   -0.0880    1.4842    0.0000 C   0  0  0  0  0  0  0  0  0  0  0  0
   -0.2546    0.7837    0.0000 C   0  0  0  0  0  0  0  0  0  0  0  0
   -0.8013    1.2525    0.0000 O   0  0  0  0  0  0  0  0  0  0  0  0
   -1.0323    0.7500    0.0000 C   0  0  0  0  0  0  0  0  0  0  0  0
   -2.1470    1.7537    0.0000 C   0  0  0  0  0  0  0  0  0  0  0  0
   -1.8351    3.2209    0.0000 C   0  0  0  0  0  0  0  0  0  0  0  0
   -0.4086    3.6844    0.0000 N   0  0  0  0  0  0  0  0  0  0  0  0
    0.3414    4.9835    0.0000 C   0  0  0  0  0  0  0  0  0  0  0  0
    1.8087    4.6716    0.0000 C   0  0  0  0  0  0  0  0  0  0  0  0
    2.1328    3.1443    0.0000 C   0  0  0  0  0  0  0  0  0  0  0  0
    0.7062    2.6807    0.0000 C   0  0  0  0  0  0  0  0  0  0  0  0
  1  2  1  0
  2  3  1  0
  3  4  1  0
  4  5  2  0
  5  6  1  0
  6  7  2  0
  7  8  1  0
  8  9  1  0
  9 10  1  0
 10 11  1  0
 11 12  1  0
 12 13  1  0
 11 14  1  0
 15 14  1  1
 15 16  1  0
 16 17  1  0
 17 18  1  0
 18 19  1  0
 19 20  1  6
 20 21  1  0
 21 22  1  0
 22 23  1  0
 23 24  1  0
 25 24  1  6
 25 26  1  0
  8  3  2  0
 25 10  1  0
 25  7  1  0
 19 15  1  0
 26 22  1  6
 26 15  1  0
M  END
$$$$
9
     RDKit          2D

 25 30  0  0  0  0  0  0  0  0999 V2000
    4.0503   -0.3303    0.0000 C   0  0  0  0  0  0  0  0  0  0  0  0
    2.9356    0.6734    0.0000 C   0  0  0  0  0  0  0  0  0  0  0  0
    1.5090    0.2098    0.0000 C   0  0  0  0  0  0  0  0  0  0  0  0
    0.3943    1.2135    0.0000 C   0  0  0  0  0  0  0  0  0  0  0  0
   -0.0880    1.4842    0.0000 C   0  0  0  0  0  0  0  0  0  0  0  0
   -0.2546    0.7837    0.0000 C   0  0  0  0  0  0  0  0  0  0  0  0
   -0.8013    1.2525    0.0000 O   0  0  0  0  0  0  0  0  0  0  0  0
   -1.0323    0.7500    0.0000 C   0  0  0  0  0  0  0  0  0  0  0  0
   -2.1470    1.7537    0.0000 C   0  0  0  0  0  0  0  0  0  0  0  0
   -1.8351    3.2209    0.0000 C   0  0  0  0  0  0  0  0  0  0  0  0
   -0.4086    3.6844    0.0000 N   0  0  0  0  0  0  0  0  0  0  0  0
    0.3414    4.9835    0.0000 C   0  0  0  0  0  0  0  0  0  0  0  0
    1.8087    4.6716    0.0000 C   0  0  0  0  0  0  0  0  0  0  0  0
    2.1328    3.1443    0.0000 C   0  0  0  0  0  0  0  0  0  0  0  0
    3.2475    2.1406    0.0000 C   0  0  0  0  0  0  0  0  0  0  0  0
    4.5465    2.8906    0.0000 N   0  0  0  0  0  0  0  0  0  0  0  0
    4.2346    4.3578    0.0000 C   0  0  0  0  0  0  0  0  0  0  0  0
    5.1163    5.5713    0.0000 C   0  0  0  0  0  0  0  0  0  0  0  0
    6.6081    5.4145    0.0000 O   0  0  0  0  0  0  0  0  0  0  0  0
    7.4898    6.6281    0.0000 C   0  0  0  0  0  0  0  0  0  0  0  0
    4.5062    6.9416    0.0000 C   0  0  0  0  0  0  0  0  0  0  0  0
    3.0144    7.0984    0.0000 C   0  0  0  0  0  0  0  0  0  0  0  0
    2.1328    5.8849    0.0000 C   0  0  0  0  0  0  0  0  0  0  0  0
    2.7429    4.5146    0.0000 C   0  0  0  0  0  0  0  0  0  0  0  0
    0.7062    2.6807    0.0000 C   0  0  0  0  0  0  0  0  0  0  0  0
  1  2  2  0
  2  3  1  0
  4  3  1  1
  4  5  1  0
  5  6  1  0
  6  7  1  0
  7  8  1  0
  8  9  1  6
  9 10  1  0
 10 11  1  0
 11 12  1  0
 12 13  1  0
 14 13  1  6
 14 15  1  0
 15 16  2  0
 16 17  1  0
 17 18  2  0
 18 19  1  0
 19 20  1  0
 18 21  1  0
 21 22  2  0
 22 23  1  0
 23 24  2  0
 14 25  1  0
 15  2  1  0
 24 17  1  0
  8  4  1  0
 25 11  1  6
 25  4  1  0
 24 14  1  0
M  END
$$$$
18
     RDKit          2D

 42 46  0  0  0  0  0  0  0  0999 V2000
   -6.0664  -11.6151    0.0000 C   0  0  0  0  0  0  0  0  0  0  0  0
   -5.1848  -10.4016    0.0000 C   0  0  0  0  0  0  0  0  0  0  0  0
   -3.6930  -10.5584    0.0000 C   0  0  0  0  0  0  0  0  0  0  0  0
   -5.7949   -9.0313    0.0000 Si  0  0  0  0  0  4  0  0  0  0  0  0
   -4.4245   -8.4212    0.0000 O   0  0  0  0  0  0  0  0  0  0  0  0
   -4.2677   -6.9294    0.0000 C   0  0  0  0  0  0  0  0  0  0  0  0
   -2.8974   -6.3193    0.0000 C   0  0  0  0  0  0  0  0  0  0  0  0
   -2.7406   -4.8275    0.0000 C   0  0  0  0  0  0  0  0  0  0  0  0
   -4.1110   -5.4376    0.0000 C   0  0  0  0  0  0  0  0  0  0  0  0
   -5.3245   -4.5559    0.0000 C   0  0  0  0  0  0  0  0  0  0  0  0
   -5.1677   -3.0642    0.0000 C   0  0  0  0  0  0  0  0  0  0  0  0
   -3.7974   -2.4540    0.0000 N   0  0  0  0  0  0  0  0  0  0  0  0
   -3.6406   -0.9623    0.0000 C   0  0  0  0  0  0  0  0  0  0  0  0
   -4.8541   -0.0806    0.0000 C   0  0  0  0  0  0  0  0  0  0  0  0
   -4.6973    1.4112    0.0000 O   0  0  0  0  0  0  0  0  0  0  0  0
   -2.5838   -3.3357    0.0000 C   0  0  0  0  0  0  0  0  0  0  0  0
   -1.2135   -2.7256    0.0000 C   0  0  0  0  0  0  0  0  0  0  0  0
   -0.0000   -3.6073    0.0000 C   0  0  0  0  0  0  0  0  0  0  0  0
    1.2135   -2.7256    0.0000 N   0  0  0  0  0  0  0  0  0  0  0  0
    2.6401   -3.1891    0.0000 S   0  0  0  0  0  0  0  0  0  0  0  0
    3.1036   -1.7626    0.0000 O   0  0  0  0  0  0  0  0  0  0  0  0
    2.1766   -4.6157    0.0000 O   0  0  0  0  0  0  0  0  0  0  0  0
    4.0667   -3.6527    0.0000 C   0  0  0  0  0  0  0  0  0  0  0  0
    4.3786   -5.1199    0.0000 C   0  0  0  0  0  0  0  0  0  0  0  0
    5.8051   -5.5834    0.0000 C   0  0  0  0  0  0  0  0  0  0  0  0
    6.9199   -4.5797    0.0000 C   0  0  0  0  0  0  0  0  0  0  0  0
    6.6080   -3.1125    0.0000 C   0  0  0  0  0  0  0  0  0  0  0  0
    5.1814   -2.6490    0.0000 C   0  0  0  0  0  0  0  0  0  0  0  0
    0.7500   -1.2990    0.0000 C   0  0  0  0  0  0  0  0  0  0  0  0
    1.5000    0.0000    0.0000 C   0  0  0  0  0  0  0  0  0  0  0  0
    0.7500    1.2990    0.0000 C   0  0  0  0  0  0  0  0  0  0  0  0
   -0.7500    1.2990    0.0000 C   0  0  0  0  0  0  0  0  0  0  0  0
   -1.5000    0.0000    0.0000 C   0  0  0  0  0  0  0  0  0  0  0  0
   -0.7500   -1.2990    0.0000 C   0  0  0  0  0  0  0  0  0  0  0  0
   -0.1568   -5.0991    0.0000 C   0  0  0  0  0  0  0  0  0  0  0  0
   -1.5271   -5.7092    0.0000 C   0  0  0  0  0  0  0  0  0  0  0  0
   -6.4050   -7.6610    0.0000 C   0  0  0  0  0  0  0  0  0  0  0  0
   -7.8967   -7.5042    0.0000 C   0  0  0  0  0  0  0  0  0  0  0  0
   -5.5233   -6.4474    0.0000 C   0  0  0  0  0  0  0  0  0  0  0  0
   -7.1652   -9.6414    0.0000 C   0  0  0  0  0  0  0  0  0  0  0  0
   -8.3787   -8.7597    0.0000 C   0  0  0  0  0  0  0  0  0  0  0  0
   -7.3220  -11.1332    0.0000 C   0  0  0  0  0  0  0  0  0  0  0  0
  1  2  1  0
  2  3  1  0
  2  4  1  0
  4  5  1  0
  5  6  1  0
  6  7  1  0
  8  7  1  1
  8  9  1  0
  9 10  2  0
 10 11  1  0
 11 12  1  0
 12 13  1  0
 13 14  1  0
 14 15  1  0
 16 12  1  6
 16 17  1  0
 17 18  2  0
 18 19  1  0
 19 20  1  0
 20 21  2  0
 20 22  2  0
 20 23  1  0
 23 24  2  0
 24 25  1  0
 25 26  2  0
 26 27  1  0
 27 28  2  0
 19 29  1  0
 29 30  2  0
 30 31  1  0
 31 32  2  0
 32 33  1  0
 33 34  2  0
 18 35  1  0
 35 36  1  0
  4 37  1  0
 37 38  1  0
 37 39  1  0
  4 40  1  0
 40 41  1  0
 40 42  1  0
 16  8  1  0
 34 17  1  0
 36  8  1  0
 28 23  1  0
 34 29  1  0
M  END
$$$$
17
     RDKit          2D

 45 49  0  0  0  0  0  0  0  0999 V2000
   -6.0664  -11.6151    0.0000 C   0  0  0  0  0  0  0  0  0  0  0  0
   -5.1848  -10.4016    0.0000 C   0  0  0  0  0  0  0  0  0  0  0  0
   -3.6930  -10.5584    0.0000 C   0  0  0  0  0  0  0  0  0  0  0  0
   -5.7949   -9.0313    0.0000 Si  0  0  0  0  0  4  0  0  0  0  0  0
   -4.4245   -8.4212    0.0000 O   0  0  0  0  0  0  0  0  0  0  0  0
   -4.2677   -6.9294    0.0000 C   0  0  0  0  0  0  0  0  0  0  0  0
   -2.8974   -6.3193    0.0000 C   0  0  0  0  0  0  0  0  0  0  0  0
   -2.7406   -4.8275    0.0000 C   0  0  0  0  0  0  0  0  0  0  0  0
   -4.1110   -5.4376    0.0000 C   0  0  0  0  0  0  0  0  0  0  0  0
   -5.3245   -4.5559    0.0000 C   0  0  0  0  0  0  0  0  0  0  0  0
   -5.1677   -3.0642    0.0000 C   0  0  0  0  0  0  0  0  0  0  0  0
   -3.7974   -2.4540    0.0000 N   0  0  0  0  0  0  0  0  0  0  0  0
   -3.6406   -0.9623    0.0000 S   0  0  0  0  0  4  0  0  0  0  0  0
   -2.2703   -0.3522    0.0000 O   0  0  0  0  0  0  0  0  0  0  0  0
   -4.8541   -0.0806    0.0000 C   0  0  0  0  0  0  0  0  0  0  0  0
   -3.9724    1.1329    0.0000 C   0  0  0  0  0  0  0  0  0  0  0  0
   -5.7358   -1.2941    0.0000 C   0  0  0  0  0  0  0  0  0  0  0  0
   -6.0676    0.8011    0.0000 C   0  0  0  0  0  0  0  0  0  0  0  0
   -2.5838   -3.3357    0.0000 C   0  0  0  0  0  0  0  0  0  0  0  0
   -1.2135   -2.7256    0.0000 C   0  0  0  0  0  0  0  0  0  0  0  0
   -0.0000   -3.6073    0.0000 C   0  0  0  0  0  0  0  0  0  0  0  0
    1.2135   -2.7256    0.0000 N   0  0  0  0  0  0  0  0  0  0  0  0
    2.6401   -3.1891    0.0000 S   0  0  0  0  0  0  0  0  0  0  0  0
    3.1036   -1.7626    0.0000 O   0  0  0  0  0  0  0  0  0  0  0  0
    2.1766   -4.6157    0.0000 O   0  0  0  0  0  0  0  0  0  0  0  0
    4.0667   -3.6527    0.0000 C   0  0  0  0  0  0  0  0  0  0  0  0
    4.3786   -5.1199    0.0000 C   0  0  0  0  0  0  0  0  0  0  0  0
    5.8051   -5.5834    0.0000 C   0  0  0  0  0  0  0  0  0  0  0  0
    6.9199   -4.5797    0.0000 C   0  0  0  0  0  0  0  0  0  0  0  0
    6.6080   -3.1125    0.0000 C   0  0  0  0  0  0  0  0  0  0  0  0
    5.1814   -2.6490    0.0000 C   0  0  0  0  0  0  0  0  0  0  0  0
    0.7500   -1.2990    0.0000 C   0  0  0  0  0  0  0  0  0  0  0  0
    1.5000    0.0000    0.0000 C   0  0  0  0  0  0  0  0  0  0  0  0
    0.7500    1.2990    0.0000 C   0  0  0  0  0  0  0  0  0  0  0  0
   -0.7500    1.2990    0.0000 C   0  0  0  0  0  0  0  0  0  0  0  0
   -1.5000    0.0000    0.0000 C   0  0  0  0  0  0  0  0  0  0  0  0
   -0.7500   -1.2990    0.0000 C   0  0  0  0  0  0  0  0  0  0  0  0
   -0.1568   -5.0991    0.0000 C   0  0  0  0  0  0  0  0  0  0  0  0
   -1.5271   -5.7092    0.0000 C   0  0  0  0  0  0  0  0  0  0  0  0
   -6.4050   -7.6610    0.0000 C   0  0  0  0  0  0  0  0  0  0  0  0
   -7.8967   -7.5042    0.0000 C   0  0  0  0  0  0  0  0  0  0  0  0
   -5.5233   -6.4474    0.0000 C   0  0  0  0  0  0  0  0  0  0  0  0
   -7.1652   -9.6414    0.0000 C   0  0  0  0  0  0  0  0  0  0  0  0
   -8.3787   -8.7597    0.0000 C   0  0  0  0  0  0  0  0  0  0  0  0
   -7.3220  -11.1332    0.0000 C   0  0  0  0  0  0  0  0  0  0  0  0
  1  2  1  0
  2  3  1  0
  2  4  1  0
  4  5  1  0
  5  6  1  0
  6  7  1  0
  8  7  1  1
  8  9  1  0
  9 10  2  0
 10 11  1  0
 11 12  1  0
 12 13  1  0
 13 14  2  0
 13 15  1  6
 15 16  1  0
 15 17  1  0
 15 18  1  0
 19 12  1  6
 19 20  1  0
 20 21  2  0
 21 22  1  0
 22 23  1  0
 23 24  2  0
 23 25  2  0
 23 26  1  0
 26 27  2  0
 27 28  1  0
 28 29  2  0
 29 30  1  0
 30 31  2  0
 22 32  1  0
 32 33  2  0
 33 34  1  0
 34 35  2  0
 35 36  1  0
 36 37  2  0
 21 38  1  0
 38 39  1  0
  4 40  1  0
 40 41  1  0
 40 42  1  0
  4 43  1  0
 43 44  1  0
 43 45  1  0
 19  8  1  0
 37 20  1  0
 39  8  1  0
 31 26  1  0
 37 32  1  0
M  END
$$$$
16
     RDKit          2D

 49 52  0  0  0  0  0  0  0  0999 V2000
   -7.7515   -2.7926    0.0000 C   0  0  0  0  0  0  0  0  0  0  0  0
   -6.3812   -2.1825    0.0000 C   0  0  0  0  0  0  0  0  0  0  0  0
   -5.1677   -3.0642    0.0000 C   0  0  0  0  0  0  0  0  0  0  0  0
   -3.7974   -2.4540    0.0000 N   0  0  0  0  0  0  0  0  0  0  0  0
   -2.5838   -3.3357    0.0000 C   0  0  0  0  0  0  0  0  0  0  0  0
   -1.2135   -2.7256    0.0000 C   0  0  0  0  0  0  0  0  0  0  0  0
   -0.0000   -3.6073    0.0000 C   0  0  0  0  0  0  0  0  0  0  0  0
    1.2135   -2.7256    0.0000 N   0  0  0  0  0  0  0  0  0  0  0  0
    2.6401   -3.1891    0.0000 S   0  0  0  0  0  0  0  0  0  0  0  0
    3.1036   -1.7626    0.0000 O   0  0  0  0  0  0  0  0  0  0  0  0
    2.1766   -4.6157    0.0000 O   0  0  0  0  0  0  0  0  0  0  0  0
    4.0667   -3.6527    0.0000 C   0  0  0  0  0  0  0  0  0  0  0  0
    4.3786   -5.1199    0.0000 C   0  0  0  0  0  0  0  0  0  0  0  0
    5.8051   -5.5834    0.0000 C   0  0  0  0  0  0  0  0  0  0  0  0
    6.9199   -4.5797    0.0000 C   0  0  0  0  0  0  0  0  0  0  0  0
    6.6080   -3.1125    0.0000 C   0  0  0  0  0  0  0  0  0  0  0  0
    5.1814   -2.6490    0.0000 C   0  0  0  0  0  0  0  0  0  0  0  0
    0.7500   -1.2990    0.0000 C   0  0  0  0  0  0  0  0  0  0  0  0
    1.5000    0.0000    0.0000 C   0  0  0  0  0  0  0  0  0  0  0  0
    0.7500    1.2990    0.0000 C   0  0  0  0  0  0  0  0  0  0  0  0
   -0.7500    1.2990    0.0000 C   0  0  0  0  0  0  0  0  0  0  0  0
   -1.5000    0.0000    0.0000 C   0  0  0  0  0  0  0  0  0  0  0  0
   -0.7500   -1.2990    0.0000 C   0  0  0  0  0  0  0  0  0  0  0  0
   -0.1568   -5.0991    0.0000 C   0  0  0  0  0  0  0  0  0  0  0  0
   -1.5271   -5.7092    0.0000 C   0  0  0  0  0  0  0  0  0  0  0  0
   -2.7406   -4.8275    0.0000 C   0  0  0  0  0  0  0  0  0  0  0  0
   -3.3982   -6.1757    0.0000 C   0  0  0  0  0  0  0  0  0  0  0  0
   -4.8945   -6.2803    0.0000 C   0  0  0  0  0  0  0  0  0  0  0  0
   -5.5521   -7.6285    0.0000 O   0  0  0  0  0  0  0  0  0  0  0  0
   -7.0484   -7.7332    0.0000 Si  0  0  0  0  0  4  0  0  0  0  0  0
   -6.9438   -9.2295    0.0000 C   0  0  0  0  0  0  0  0  0  0  0  0
   -8.1874  -10.0683    0.0000 C   0  0  0  0  0  0  0  0  0  0  0  0
   -5.5956   -9.8871    0.0000 C   0  0  0  0  0  0  0  0  0  0  0  0
   -7.1531   -6.2368    0.0000 C   0  0  0  0  0  0  0  0  0  0  0  0
   -8.5013   -5.5793    0.0000 C   0  0  0  0  0  0  0  0  0  0  0  0
   -5.7435   -5.7239    0.0000 C   0  0  0  0  0  0  0  0  0  0  0  0
   -8.5448   -7.8378    0.0000 C   0  0  0  0  0  0  0  0  0  0  0  0
   -9.3836   -6.5942    0.0000 C   0  0  0  0  0  0  0  0  0  0  0  0
   -9.2023   -9.1860    0.0000 C   0  0  0  0  0  0  0  0  0  0  0  0
   -4.1825   -4.4141    0.0000 C   0  0  0  0  0  0  0  0  0  0  0  0
   -4.7160   -3.8217    0.0000 O   0  0  0  0  0  0  0  0  0  0  0  0
   -5.2615   -5.4560    0.0000 O   0  0  0  0  0  0  0  0  0  0  0  0
   -6.7034   -5.0426    0.0000 C   0  0  0  0  0  0  0  0  0  0  0  0
   -3.6406   -0.9623    0.0000 S   0  0  0  0  0  4  0  0  0  0  0  0
   -2.2703   -0.3522    0.0000 O   0  0  0  0  0  0  0  0  0  0  0  0
   -4.8541   -0.0806    0.0000 C   0  0  0  0  0  0  0  0  0  0  0  0
   -3.9724    1.1329    0.0000 C   0  0  0  0  0  0  0  0  0  0  0  0
   -5.7358   -1.2941    0.0000 C   0  0  0  0  0  0  0  0  0  0  0  0
   -6.0676    0.8011    0.0000 C   0  0  0  0  0  0  0  0  0  0  0  0
  1  2  2  0
  2  3  1  0
  3  4  1  0
  5  4  1  6
  5  6  1  0
  6  7  2  0
  7  8  1  0
  8  9  1  0
  9 10  2  0
  9 11  2  0
  9 12  1  0
 12 13  2  0
 13 14  1  0
 14 15  2  0
 15 16  1  0
 16 17  2  0
  8 18  1  0
 18 19  2  0
 19 20  1  0
 20 21  2  0
 21 22  1  0
 22 23  2  0
  7 24  1  0
 24 25  1  0
 25 26  1  0
 26 27  1  1
 27 28  1  0
 28 29  1  0
 29 30  1  0
 30 31  1  0
 31 32  1  0
 31 33  1  0
 30 34  1  0
 34 35  1  0
 34 36  1  0
 30 37  1  0
 37 38  1  0
 37 39  1  0
 26 40  1  0
 40 41  2  0
 40 42  1  0
 42 43  1  0
 44  4  1  6
 44 45  2  0
 44 46  1  0
 46 47  1  0
 46 48  1  0
 46 49  1  0
 26  5  1  0
 23  6  1  0
 17 12  1  0
 23 18  1  0
M  END
$$$$
14
     RDKit          2D

 27 29  0  0  0  0  0  0  0  0999 V2000
   -0.0000   -5.1073    0.0000 C   0  0  0  0  0  0  0  0  0  0  0  0
   -0.0000   -3.6073    0.0000 C   0  0  0  0  0  0  0  0  0  0  0  0
    1.2135   -2.7256    0.0000 C   0  0  0  0  0  0  0  0  0  0  0  0
    2.6401   -3.1891    0.0000 C   0  0  0  0  0  0  0  0  0  0  0  0
    2.9520   -4.6564    0.0000 N   0  0  0  0  0  0  0  0  0  0  0  0
    4.3786   -5.1199    0.0000 S   0  0  0  0  0  4  0  0  0  0  0  0
    5.4933   -4.1162    0.0000 O   0  0  0  0  0  0  0  0  0  0  0  0
    4.6904   -6.5871    0.0000 C   0  0  0  0  0  0  0  0  0  0  0  0
    6.1577   -6.2752    0.0000 C   0  0  0  0  0  0  0  0  0  0  0  0
    3.2232   -6.8990    0.0000 C   0  0  0  0  0  0  0  0  0  0  0  0
    5.0023   -8.0543    0.0000 C   0  0  0  0  0  0  0  0  0  0  0  0
    0.7500   -1.2990    0.0000 C   0  0  0  0  0  0  0  0  0  0  0  0
    1.5000    0.0000    0.0000 C   0  0  0  0  0  0  0  0  0  0  0  0
    0.7500    1.2990    0.0000 C   0  0  0  0  0  0  0  0  0  0  0  0
   -0.7500    1.2990    0.0000 C   0  0  0  0  0  0  0  0  0  0  0  0
   -1.5000    0.0000    0.0000 C   0  0  0  0  0  0  0  0  0  0  0  0
   -0.7500   -1.2990    0.0000 C   0  0  0  0  0  0  0  0  0  0  0  0
   -1.2135   -2.7256    0.0000 N   0  0  0  0  0  0  0  0  0  0  0  0
   -2.6401   -3.1891    0.0000 S   0  0  0  0  0  0  0  0  0  0  0  0
   -2.1766   -4.6157    0.0000 O   0  0  0  0  0  0  0  0  0  0  0  0
   -3.1036   -1.7626    0.0000 O   0  0  0  0  0  0  0  0  0  0  0  0
   -4.0667   -3.6527    0.0000 C   0  0  0  0  0  0  0  0  0  0  0  0
   -5.1814   -2.6490    0.0000 C   0  0  0  0  0  0  0  0  0  0  0  0
   -6.6080   -3.1125    0.0000 C   0  0  0  0  0  0  0  0  0  0  0  0
   -6.9199   -4.5797    0.0000 C   0  0  0  0  0  0  0  0  0  0  0  0
   -5.8051   -5.5834    0.0000 C   0  0  0  0  0  0  0  0  0  0  0  0
   -4.3786   -5.1199    0.0000 C   0  0  0  0  0  0  0  0  0  0  0  0
  1  2  1  0
  2  3  2  0
  3  4  1  0
  4  5  2  3
  5  6  1  0
  6  7  2  0
  6  8  1  1
  8  9  1  0
  8 10  1  0
  8 11  1  0
  3 12  1  0
 12 13  2  0
 13 14  1  0
 14 15  2  0
 15 16  1  0
 16 17  2  0
 17 18  1  0
 18 19  1  0
 19 20  2  0
 19 21  2  0
 19 22  1  0
 22 23  2  0
 23 24  1  0
 24 25  2  0
 25 26  1  0
 26 27  2  0
 18  2  1  0
 27 22  1  0
 17 12  1  0
M  END
$$$$
13
     RDKit          2D

 10 11  0  0  0  0  0  0  0  0999 V2000
   -0.0000   -5.1073    0.0000 C   0  0  0  0  0  0  0  0  0  0  0  0
   -0.0000   -3.6073    0.0000 C   0  0  0  0  0  0  0  0  0  0  0  0
    1.2135   -2.7256    0.0000 C   0  0  0  0  0  0  0  0  0  0  0  0
    0.7500   -1.2990    0.0000 C   0  0  0  0  0  0  0  0  0  0  0  0
    1.5000    0.0000    0.0000 C   0  0  0  0  0  0  0  0  0  0  0  0
    0.7500    1.2990    0.0000 C   0  0  0  0  0  0  0  0  0  0  0  0
   -0.7500    1.2990    0.0000 C   0  0  0  0  0  0  0  0  0  0  0  0
   -1.5000    0.0000    0.0000 C   0  0  0  0  0  0  0  0  0  0  0  0
   -0.7500   -1.2990    0.0000 C   0  0  0  0  0  0  0  0  0  0  0  0
   -1.2135   -2.7256    0.0000 N   0  0  0  0  0  0  0  0  0  0  0  0
  1  2  1  0
  2  3  2  0
  3  4  1  0
  4  5  2  0
  5  6  1  0
  6  7  2  0
  7  8  1  0
  8  9  2  0
  9 10  1  0
 10  2  1  0
  9  4  1  0
M  END
$$$$
15
     RDKit          2D

 19 18  0  0  0  0  0  0  0  0999 V2000
    0.0000    0.0000    0.0000 C   0  0  0  0  0  0  0  0  0  0  0  0
    1.2990    0.7500    0.0000 C   0  0  0  0  0  0  0  0  0  0  0  0
    2.5981   -0.0000    0.0000 C   0  0  0  0  0  0  0  0  0  0  0  0
    3.8971    0.7500    0.0000 C   0  0  0  0  0  0  0  0  0  0  0  0
    5.1962   -0.0000    0.0000 O   0  0  0  0  0  0  0  0  0  0  0  0
    6.4952    0.7500    0.0000 Si  0  0  0  0  0  4  0  0  0  0  0  0
    7.2452   -0.5490    0.0000 C   0  0  0  0  0  0  0  0  0  0  0  0
    8.7452   -0.5490    0.0000 C   0  0  0  0  0  0  0  0  0  0  0  0
    6.4952   -1.8481    0.0000 C   0  0  0  0  0  0  0  0  0  0  0  0
    5.7452    2.0490    0.0000 C   0  0  0  0  0  0  0  0  0  0  0  0
    6.4952    3.3481    0.0000 C   0  0  0  0  0  0  0  0  0  0  0  0
    4.2452    2.0490    0.0000 C   0  0  0  0  0  0  0  0  0  0  0  0
    7.7942    1.5000    0.0000 C   0  0  0  0  0  0  0  0  0  0  0  0
    7.7942    3.0000    0.0000 C   0  0  0  0  0  0  0  0  0  0  0  0
    9.0933    0.7500    0.0000 C   0  0  0  0  0  0  0  0  0  0  0  0
    1.2990    2.2500    0.0000 C   0  0  0  0  0  0  0  0  0  0  0  0
   -0.0000    3.0000    0.0000 O   0  0  0  0  0  0  0  0  0  0  0  0
    2.5981    3.0000    0.0000 O   0  0  0  0  0  0  0  0  0  0  0  0
    2.5981    4.5000    0.0000 C   0  0  0  0  0  0  0  0  0  0  0  0
  1  2  2  0
  2  3  1  0
  3  4  1  0
  4  5  1  0
  5  6  1  0
  6  7  1  0
  7  8  1  0
  7  9  1  0
  6 10  1  0
 10 11  1  0
 10 12  1  0
  6 13  1  0
 13 14  1  0
 13 15  1  0
  2 16  1  0
 16 17  2  0
 16 18  1  0
 18 19  1  0
M  END
$$$$
24
     RDKit          2D

  5  3  0  0  0  0  0  0  0  0999 V2000
    0.0000    0.0000    0.0000 C   0  0  0  0  0  0  0  0  0  0  0  0
    1.2990    0.7500    0.0000 N   0  0  0  0  0  0  0  0  0  0  0  0
    2.5981   -0.0000    0.0000 C   0  0  0  0  0  0  0  0  0  0  0  0
    1.2990    2.2500    0.0000 C   0  0  0  0  0  0  0  0  0  0  0  0
    0.0000    3.2500    0.0000 I   0  0  0  0  0  0  0  0  0  0  0  0
  1  2  2  0
  2  3  1  0
  2  4  1  0
M  CHG  2   2   1   5  -1
M  END
$$$$
31
     RDKit          2D

 52 63  0  0  0  0  0  0  0  0999 V2000
    2.1135   -8.3542    0.0000 C   0  0  0  0  0  0  0  0  0  0  0  0
    0.8999   -7.4725    0.0000 O   0  0  0  0  0  0  0  0  0  0  0  0
    1.0567   -5.9808    0.0000 C   0  0  0  0  0  0  0  0  0  0  0  0
    2.4271   -5.3707    0.0000 O   0  0  0  0  0  0  0  0  0  0  0  0
   -0.1568   -5.0991    0.0000 C   0  0  0  0  0  0  0  0  0  0  0  0
   -0.0000   -3.6073    0.0000 C   0  0  0  0  0  0  0  0  0  0  0  0
    1.2135   -2.7256    0.0000 N   0  0  0  0  0  0  0  0  0  0  0  0
    0.7500   -1.2990    0.0000 C   0  0  0  0  0  0  0  0  0  0  0  0
    1.5000    0.0000    0.0000 C   0  0  0  0  0  0  0  0  0  0  0  0
    0.7500    1.2990    0.0000 C   0  0  0  0  0  0  0  0  0  0  0  0
   -0.7500    1.2990    0.0000 C   0  0  0  0  0  0  0  0  0  0  0  0
   -1.5000    0.0000    0.0000 C   0  0  0  0  0  0  0  0  0  0  0  0
   -0.7500   -1.2990    0.0000 C   0  0  0  0  0  0  0  0  0  0  0  0
   -1.2135   -2.7256    0.0000 C   0  0  0  0  0  0  0  0  0  0  0  0
   -2.4844   -2.4555    0.0000 C   0  0  0  0  0  0  0  0  0  0  0  0
   -2.3166   -2.4911    0.0000 C   0  0  0  0  0  0  0  0  0  0  0  0
   -3.5875   -2.2210    0.0000 N   0  0  0  0  0  0  0  0  0  0  0  0
   -4.9701   -2.8201    0.0000 C   0  0  0  0  0  0  0  0  0  0  0  0
   -5.2819   -4.2873    0.0000 C   0  0  0  0  0  0  0  0  0  0  0  0
   -6.7085   -4.7509    0.0000 C   0  0  0  0  0  0  0  0  0  0  0  0
   -7.0204   -6.2181    0.0000 C   0  0  0  0  0  0  0  0  0  0  0  0
   -8.4470   -6.6816    0.0000 C   0  0  0  0  0  0  0  0  0  0  0  0
   -9.0571   -8.0519    0.0000 O   0  0  0  0  0  0  0  0  0  0  0  0
  -10.5489   -7.8951    0.0000 C   0  0  0  0  0  0  0  0  0  0  0  0
  -10.8607   -6.4279    0.0000 C   0  0  0  0  0  0  0  0  0  0  0  0
   -9.5617   -5.6779    0.0000 C   0  0  0  0  0  0  0  0  0  0  0  0
  -10.9883   -6.1414    0.0000 C   0  0  0  0  0  0  0  0  0  0  0  0
  -12.1030   -5.1377    0.0000 C   0  0  0  0  0  0  0  0  0  0  0  0
  -13.5296   -5.6013    0.0000 C   0  0  0  0  0  0  0  0  0  0  0  0
  -13.8414   -7.0685    0.0000 O   0  0  0  0  0  0  0  0  0  0  0  0
  -14.6443   -4.5976    0.0000 O   0  0  0  0  0  0  0  0  0  0  0  0
  -16.0709   -5.0611    0.0000 C   0  0  0  0  0  0  0  0  0  0  0  0
  -11.7911   -3.6705    0.0000 C   0  0  0  0  0  0  0  0  0  0  0  0
  -12.6728   -2.4570    0.0000 N   0  0  0  0  0  0  0  0  0  0  0  0
  -11.7911   -1.2435    0.0000 C   0  0  0  0  0  0  0  0  0  0  0  0
  -12.1030    0.2237    0.0000 C   0  0  0  0  0  0  0  0  0  0  0  0
  -10.9883    1.2274    0.0000 C   0  0  0  0  0  0  0  0  0  0  0  0
   -9.5617    0.7639    0.0000 C   0  0  0  0  0  0  0  0  0  0  0  0
   -9.2498   -0.7033    0.0000 C   0  0  0  0  0  0  0  0  0  0  0  0
  -10.3645   -1.7070    0.0000 C   0  0  0  0  0  0  0  0  0  0  0  0
  -10.3645   -3.2070    0.0000 C   0  0  0  0  0  0  0  0  0  0  0  0
   -9.6145   -1.9080    0.0000 C   0  0  0  0  0  0  0  0  0  0  0  0
   -8.1473   -2.2198    0.0000 C   0  0  0  0  0  0  0  0  0  0  0  0
   -7.8232   -3.7472    0.0000 N   0  0  0  0  0  0  0  0  0  0  0  0
   -9.2498   -4.2107    0.0000 C   0  0  0  0  0  0  0  0  0  0  0  0
   -4.1672   -5.2910    0.0000 C   0  0  0  0  0  0  0  0  0  0  0  0
   -4.1672   -6.7910    0.0000 O   0  0  0  0  0  0  0  0  0  0  0  0
   -2.7406   -7.2546    0.0000 C   0  0  0  0  0  0  0  0  0  0  0  0
   -1.8590   -6.0410    0.0000 C   0  0  0  0  0  0  0  0  0  0  0  0
   -2.7406   -4.8275    0.0000 C   0  0  0  0  0  0  0  0  0  0  0  0
   -1.5271   -5.7092    0.0000 C   0  0  0  0  0  0  0  0  0  0  0  0
   -2.5838   -3.3357    0.0000 C   0  0  0  0  0  0  0  0  0  0  0  0
  1  2  1  0
  2  3  1  0
  3  4  2  0
  3  5  1  0
  5  6  2  0
  6  7  1  0
  7  8  1  0
  8  9  2  0
  9 10  1  0
 10 11  2  0
 11 12  1  0
 12 13  2  0
 13 14  1  0
 14 15  1  6
 15 16  1  0
 16 17  1  0
 17 18  1  0
 18 19  2  0
 19 20  1  0
 20 21  1  0
 22 21  1  6
 22 23  1  0
 23 24  1  0
 24 25  1  0
 26 25  1  6
 26 27  1  0
 27 28  1  0
 28 29  1  0
 29 30  2  0
 29 31  1  0
 31 32  1  0
 28 33  2  0
 33 34  1  0
 34 35  1  0
 35 36  2  0
 36 37  1  0
 37 38  2  0
 38 39  1  0
 39 40  2  0
 40 41  1  0
 41 42  1  1
 42 43  1  0
 43 44  1  0
 45 44  1  1
 19 46  1  0
 46 47  1  1
 47 48  1  0
 48 49  1  0
 50 49  1  1
 50 51  1  0
 50 52  1  0
 51  5  1  0
 14  6  1  0
 52 17  1  6
 13  8  1  0
 52 14  1  0
 44 20  1  0
 50 46  1  0
 26 22  1  0
 41 33  1  0
 45 26  1  0
 40 35  1  0
 45 41  1  0
M  END
$$$$
3
     RDKit          2D

 52 64  0  0  0  0  0  0  0  0999 V2000
    2.1135   -8.3542    0.0000 C   0  0  0  0  0  0  0  0  0  0  0  0
    0.8999   -7.4725    0.0000 O   0  0  0  0  0  0  0  0  0  0  0  0
    1.0567   -5.9808    0.0000 C   0  0  0  0  0  0  0  0  0  0  0  0
    2.4271   -5.3707    0.0000 O   0  0  0  0  0  0  0  0  0  0  0  0
   -0.1568   -5.0991    0.0000 C   0  0  0  0  0  0  0  0  0  0  0  0
   -0.0000   -3.6073    0.0000 C   0  0  0  0  0  0  0  0  0  0  0  0
    1.2135   -2.7256    0.0000 N   0  0  0  0  0  0  0  0  0  0  0  0
    0.7500   -1.2990    0.0000 C   0  0  0  0  0  0  0  0  0  0  0  0
    1.5000    0.0000    0.0000 C   0  0  0  0  0  0  0  0  0  0  0  0
    0.7500    1.2990    0.0000 C   0  0  0  0  0  0  0  0  0  0  0  0
   -0.7500    1.2990    0.0000 C   0  0  0  0  0  0  0  0  0  0  0  0
   -1.5000    0.0000    0.0000 C   0  0  0  0  0  0  0  0  0  0  0  0
   -0.7500   -1.2990    0.0000 C   0  0  0  0  0  0  0  0  0  0  0  0
   -1.2135   -2.7256    0.0000 C   0  0  0  0  0  0  0  0  0  0  0  0
   -2.4844   -2.4555    0.0000 C   0  0  0  0  0  0  0  0  0  0  0  0
   -2.3166   -2.4911    0.0000 C   0  0  0  0  0  0  0  0  0  0  0  0
   -3.5875   -2.2210    0.0000 N   0  0  0  0  0  0  0  0  0  0  0  0
   -4.9701   -2.8201    0.0000 C   0  0  0  0  0  0  0  0  0  0  0  0
   -5.2819   -4.2873    0.0000 C   0  0  0  0  0  0  0  0  0  0  0  0
   -6.3967   -3.2836    0.0000 C   0  0  0  0  0  0  0  0  0  0  0  0
   -7.8232   -3.7472    0.0000 C   0  0  0  0  0  0  0  0  0  0  0  0
   -8.1351   -5.2144    0.0000 C   0  0  0  0  0  0  0  0  0  0  0  0
   -7.0204   -6.2181    0.0000 N   0  0  0  0  0  0  0  0  0  0  0  0
   -5.5938   -5.7546    0.0000 C   0  0  0  0  0  0  0  0  0  0  0  0
   -7.9377   -7.4816    0.0000 C   0  0  0  0  0  0  0  0  0  0  0  0
   -7.4742   -8.9082    0.0000 C   0  0  0  0  0  0  0  0  0  0  0  0
   -6.0069   -9.2200    0.0000 O   0  0  0  0  0  0  0  0  0  0  0  0
   -5.5434  -10.6466    0.0000 C   0  0  0  0  0  0  0  0  0  0  0  0
   -8.4778  -10.0229    0.0000 C   0  0  0  0  0  0  0  0  0  0  0  0
   -9.9451   -9.7110    0.0000 C   0  0  0  0  0  0  0  0  0  0  0  0
  -10.4086   -8.2844    0.0000 C   0  0  0  0  0  0  0  0  0  0  0  0
   -9.4049   -7.1697    0.0000 C   0  0  0  0  0  0  0  0  0  0  0  0
   -9.5617   -5.6779    0.0000 C   0  0  0  0  0  0  0  0  0  0  0  0
  -10.1718   -7.0482    0.0000 C   0  0  0  0  0  0  0  0  0  0  0  0
  -11.6636   -6.8914    0.0000 C   0  0  0  0  0  0  0  0  0  0  0  0
  -11.9754   -5.4242    0.0000 N   0  0  0  0  0  0  0  0  0  0  0  0
  -13.1052   -4.4272    0.0000 C   0  0  0  0  0  0  0  0  0  0  0  0
  -12.9484   -2.9354    0.0000 C   0  0  0  0  0  0  0  0  0  0  0  0
  -11.5781   -2.3253    0.0000 C   0  0  0  0  0  0  0  0  0  0  0  0
  -11.1145   -0.8987    0.0000 O   0  0  0  0  0  0  0  0  0  0  0  0
   -9.6145   -0.8987    0.0000 C   0  0  0  0  0  0  0  0  0  0  0  0
   -9.1510   -2.3253    0.0000 C   0  0  0  0  0  0  0  0  0  0  0  0
  -10.3645   -3.2070    0.0000 C   0  0  0  0  0  0  0  0  0  0  0  0
   -8.9380   -2.7435    0.0000 C   0  0  0  0  0  0  0  0  0  0  0  0
  -10.6764   -4.6742    0.0000 C   0  0  0  0  0  0  0  0  0  0  0  0
   -4.1672   -5.2910    0.0000 C   0  0  0  0  0  0  0  0  0  0  0  0
   -4.1672   -6.7910    0.0000 O   0  0  0  0  0  0  0  0  0  0  0  0
   -2.7406   -7.2546    0.0000 C   0  0  0  0  0  0  0  0  0  0  0  0
   -1.8590   -6.0410    0.0000 C   0  0  0  0  0  0  0  0  0  0  0  0
   -2.7406   -4.8275    0.0000 C   0  0  0  0  0  0  0  0  0  0  0  0
   -1.5271   -5.7092    0.0000 C   0  0  0  0  0  0  0  0  0  0  0  0
   -2.5838   -3.3357    0.0000 C   0  0  0  0  0  0  0  0  0  0  0  0
  1  2  1  0
  2  3  1  0
  3  4  2  0
  3  5  1  0
  5  6  2  0
  6  7  1  0
  7  8  1  0
  8  9  2  0
  9 10  1  0
 10 11  2  0
 11 12  1  0
 12 13  2  0
 13 14  1  0
 14 15  1  6
 15 16  1  0
 16 17  1  0
 17 18  1  0
 19 18  1  1
 19 20  1  0
 20 21  1  0
 21 22  2  0
 22 23  1  0
 23 24  1  0
 23 25  1  0
 25 26  2  0
 26 27  1  0
 27 28  1  0
 26 29  1  0
 29 30  2  0
 30 31  1  0
 31 32  2  0
 32 33  1  0
 33 34  1  1
 34 35  1  0
 35 36  1  0
 36 37  1  0
 37 38  1  0
 39 38  1  6
 39 40  1  0
 40 41  1  0
 41 42  1  0
 43 42  1  6
 43 44  1  0
 43 45  1  0
 19 46  1  0
 46 47  1  1
 47 48  1  0
 48 49  1  0
 50 49  1  1
 50 51  1  0
 50 52  1  0
 51  5  1  0
 14  6  1  0
 52 17  1  6
 13  8  1  0
 52 14  1  0
 24 19  1  0
 32 25  1  0
 45 33  1  0
 50 46  1  0
 44 21  1  0
 33 22  1  0
 45 36  1  1
 43 39  1  0
M  END
$$$$
26
     RDKit          2D

 54 66  0  0  0  0  0  0  0  0999 V2000
    2.1135   -8.3542    0.0000 C   0  0  0  0  0  0  0  0  0  0  0  0
    0.8999   -7.4725    0.0000 O   0  0  0  0  0  0  0  0  0  0  0  0
    1.0567   -5.9808    0.0000 C   0  0  0  0  0  0  0  0  0  0  0  0
    2.4271   -5.3707    0.0000 O   0  0  0  0  0  0  0  0  0  0  0  0
   -0.1568   -5.0991    0.0000 C   0  0  0  0  0  0  0  0  0  0  0  0
   -0.0000   -3.6073    0.0000 C   0  0  0  0  0  0  0  0  0  0  0  0
    1.2135   -2.7256    0.0000 N   0  0  0  0  0  0  0  0  0  0  0  0
    0.7500   -1.2990    0.0000 C   0  0  0  0  0  0  0  0  0  0  0  0
    1.5000    0.0000    0.0000 C   0  0  0  0  0  0  0  0  0  0  0  0
    0.7500    1.2990    0.0000 C   0  0  0  0  0  0  0  0  0  0  0  0
   -0.7500    1.2990    0.0000 C   0  0  0  0  0  0  0  0  0  0  0  0
   -1.5000    0.0000    0.0000 C   0  0  0  0  0  0  0  0  0  0  0  0
   -0.7500   -1.2990    0.0000 C   0  0  0  0  0  0  0  0  0  0  0  0
   -1.2135   -2.7256    0.0000 C   0  0  0  0  0  0  0  0  0  0  0  0
   -2.4844   -2.4555    0.0000 C   0  0  0  0  0  0  0  0  0  0  0  0
   -2.3166   -2.4911    0.0000 C   0  0  0  0  0  0  0  0  0  0  0  0
   -3.5875   -2.2210    0.0000 N   0  0  0  0  0  0  0  0  0  0  0  0
   -4.9701   -2.8201    0.0000 C   0  0  0  0  0  0  0  0  0  0  0  0
   -6.0848   -1.8164    0.0000 C   0  0  0  0  0  0  0  0  0  0  0  0
   -7.1995   -0.8127    0.0000 N   0  0  0  0  0  0  0  0  0  0  0  0
   -5.2819   -4.2873    0.0000 C   0  0  0  0  0  0  0  0  0  0  0  0
   -6.3967   -3.2836    0.0000 C   0  0  0  0  0  0  0  0  0  0  0  0
   -7.8232   -3.7472    0.0000 C   0  0  0  0  0  0  0  0  0  0  0  0
   -8.1351   -5.2144    0.0000 C   0  0  0  0  0  0  0  0  0  0  0  0
   -7.0204   -6.2181    0.0000 N   0  0  0  0  0  0  0  0  0  0  0  0
   -5.5938   -5.7546    0.0000 C   0  0  0  0  0  0  0  0  0  0  0  0
   -7.9377   -7.4816    0.0000 C   0  0  0  0  0  0  0  0  0  0  0  0
   -7.4742   -8.9082    0.0000 C   0  0  0  0  0  0  0  0  0  0  0  0
   -6.0069   -9.2200    0.0000 O   0  0  0  0  0  0  0  0  0  0  0  0
   -5.5434  -10.6466    0.0000 C   0  0  0  0  0  0  0  0  0  0  0  0
   -8.4778  -10.0229    0.0000 C   0  0  0  0  0  0  0  0  0  0  0  0
   -9.9451   -9.7110    0.0000 C   0  0  0  0  0  0  0  0  0  0  0  0
  -10.4086   -8.2844    0.0000 C   0  0  0  0  0  0  0  0  0  0  0  0
   -9.4049   -7.1697    0.0000 C   0  0  0  0  0  0  0  0  0  0  0  0
   -9.5617   -5.6779    0.0000 C   0  0  0  0  0  0  0  0  0  0  0  0
  -10.1718   -7.0482    0.0000 C   0  0  0  0  0  0  0  0  0  0  0  0
  -11.6636   -6.8914    0.0000 C   0  0  0  0  0  0  0  0  0  0  0  0
  -11.9754   -5.4242    0.0000 N   0  0  0  0  0  0  0  0  0  0  0  0
  -13.1052   -4.4272    0.0000 C   0  0  0  0  0  0  0  0  0  0  0  0
  -12.9484   -2.9354    0.0000 C   0  0  0  0  0  0  0  0  0  0  0  0
  -11.5781   -2.3253    0.0000 C   0  0  0  0  0  0  0  0  0  0  0  0
  -11.1145   -0.8987    0.0000 O   0  0  0  0  0  0  0  0  0  0  0  0
   -9.6145   -0.8987    0.0000 C   0  0  0  0  0  0  0  0  0  0  0  0
   -9.1510   -2.3253    0.0000 C   0  0  0  0  0  0  0  0  0  0  0  0
  -10.3645   -3.2070    0.0000 C   0  0  0  0  0  0  0  0  0  0  0  0
   -8.9380   -2.7435    0.0000 C   0  0  0  0  0  0  0  0  0  0  0  0
  -10.6764   -4.6742    0.0000 C   0  0  0  0  0  0  0  0  0  0  0  0
   -4.1672   -5.2910    0.0000 C   0  0  0  0  0  0  0  0  0  0  0  0
   -4.1672   -6.7910    0.0000 O   0  0  0  0  0  0  0  0  0  0  0  0
   -2.7406   -7.2546    0.0000 C   0  0  0  0  0  0  0  0  0  0  0  0
   -1.8590   -6.0410    0.0000 C   0  0  0  0  0  0  0  0  0  0  0  0
   -2.7406   -4.8275    0.0000 C   0  0  0  0  0  0  0  0  0  0  0  0
   -1.5271   -5.7092    0.0000 C   0  0  0  0  0  0  0  0  0  0  0  0
   -2.5838   -3.3357    0.0000 C   0  0  0  0  0  0  0  0  0  0  0  0
  1  2  1  0
  2  3  1  0
  3  4  2  0
  3  5  1  0
  5  6  2  0
  6  7  1  0
  7  8  1  0
  8  9  2  0
  9 10  1  0
 10 11  2  0
 11 12  1  0
 12 13  2  0
 13 14  1  0
 14 15  1  6
 15 16  1  0
 16 17  1  0
 17 18  1  0
 18 19  1  0
 19 20  3  0
 18 21  1  0
 21 22  1  0
 22 23  1  0
 23 24  2  0
 24 25  1  0
 25 26  1  0
 25 27  1  0
 27 28  2  0
 28 29  1  0
 29 30  1  0
 28 31  1  0
 31 32  2  0
 32 33  1  0
 33 34  2  0
 34 35  1  0
 35 36  1  1
 36 37  1  0
 37 38  1  0
 38 39  1  0
 39 40  1  0
 41 40  1  6
 41 42  1  0
 42 43  1  0
 43 44  1  0
 45 44  1  6
 45 46  1  0
 45 47  1  0
 21 48  1  0
 48 49  1  1
 49 50  1  0
 50 51  1  0
 52 51  1  1
 52 53  1  0
 52 54  1  0
 53  5  1  0
 14  6  1  0
 54 17  1  6
 13  8  1  0
 54 14  1  0
 26 21  1  0
 34 27  1  0
 47 35  1  0
 52 48  1  0
 46 23  1  0
 35 24  1  0
 47 38  1  1
 45 41  1  0
M  END
$$$$
29
     RDKit          2D

 54 65  0  0  0  0  0  0  0  0999 V2000
    2.1135   -8.3542    0.0000 C   0  0  0  0  0  0  0  0  0  0  0  0
    0.8999   -7.4725    0.0000 O   0  0  0  0  0  0  0  0  0  0  0  0
    1.0567   -5.9808    0.0000 C   0  0  0  0  0  0  0  0  0  0  0  0
    2.4271   -5.3707    0.0000 O   0  0  0  0  0  0  0  0  0  0  0  0
   -0.1568   -5.0991    0.0000 C   0  0  0  0  0  0  0  0  0  0  0  0
   -0.0000   -3.6073    0.0000 C   0  0  0  0  0  0  0  0  0  0  0  0
    1.2135   -2.7256    0.0000 N   0  0  0  0  0  0  0  0  0  0  0  0
    0.7500   -1.2990    0.0000 C   0  0  0  0  0  0  0  0  0  0  0  0
    1.5000    0.0000    0.0000 C   0  0  0  0  0  0  0  0  0  0  0  0
    0.7500    1.2990    0.0000 C   0  0  0  0  0  0  0  0  0  0  0  0
   -0.7500    1.2990    0.0000 C   0  0  0  0  0  0  0  0  0  0  0  0
   -1.5000    0.0000    0.0000 C   0  0  0  0  0  0  0  0  0  0  0  0
   -0.7500   -1.2990    0.0000 C   0  0  0  0  0  0  0  0  0  0  0  0
   -1.2135   -2.7256    0.0000 C   0  0  0  0  0  0  0  0  0  0  0  0
   -2.4844   -2.4555    0.0000 C   0  0  0  0  0  0  0  0  0  0  0  0
   -2.3166   -2.4911    0.0000 C   0  0  0  0  0  0  0  0  0  0  0  0
   -3.5875   -2.2210    0.0000 N   0  0  0  0  0  0  0  0  0  0  0  0
   -4.9701   -2.8201    0.0000 C   0  0  0  0  0  0  0  0  0  0  0  0
   -6.0848   -1.8164    0.0000 C   0  0  0  0  0  0  0  0  0  0  0  0
   -7.1995   -0.8127    0.0000 N   0  0  0  0  0  0  0  0  0  0  0  0
   -5.2819   -4.2873    0.0000 C   0  0  0  0  0  0  0  0  0  0  0  0
   -6.3967   -3.2836    0.0000 C   0  0  0  0  0  0  0  0  0  0  0  0
   -7.8232   -3.7472    0.0000 C   0  0  0  0  0  0  0  0  0  0  0  0
   -8.5274   -2.4227    0.0000 C   0  0  0  0  0  0  0  0  0  0  0  0
   -9.9182   -1.8608    0.0000 C   0  0  0  0  0  0  0  0  0  0  0  0
   -8.5985   -1.1478    0.0000 C   0  0  0  0  0  0  0  0  0  0  0  0
   -8.8688    0.3276    0.0000 C   0  0  0  0  0  0  0  0  0  0  0  0
  -10.3556    0.5265    0.0000 O   0  0  0  0  0  0  0  0  0  0  0  0
  -11.0159   -0.8149    0.0000 C   0  0  0  0  0  0  0  0  0  0  0  0
  -12.5013   -1.0236    0.0000 C   0  0  0  0  0  0  0  0  0  0  0  0
  -13.0632   -2.4144    0.0000 C   0  0  0  0  0  0  0  0  0  0  0  0
  -12.1397   -3.5964    0.0000 N   0  0  0  0  0  0  0  0  0  0  0  0
  -11.9309   -5.0818    0.0000 C   0  0  0  0  0  0  0  0  0  0  0  0
  -10.8162   -6.0855    0.0000 C   0  0  0  0  0  0  0  0  0  0  0  0
   -9.3171   -6.1379    0.0000 C   0  0  0  0  0  0  0  0  0  0  0  0
   -8.1351   -5.2144    0.0000 C   0  0  0  0  0  0  0  0  0  0  0  0
   -7.0204   -6.2181    0.0000 N   0  0  0  0  0  0  0  0  0  0  0  0
   -7.4046   -7.6321    0.0000 C   0  0  0  0  0  0  0  0  0  0  0  0
   -6.7004   -8.9565    0.0000 C   0  0  0  0  0  0  0  0  0  0  0  0
   -5.2013   -9.0089    0.0000 O   0  0  0  0  0  0  0  0  0  0  0  0
   -4.4971  -10.3333    0.0000 C   0  0  0  0  0  0  0  0  0  0  0  0
   -7.4953  -10.2286    0.0000 C   0  0  0  0  0  0  0  0  0  0  0  0
   -8.9943  -10.1763    0.0000 C   0  0  0  0  0  0  0  0  0  0  0  0
   -9.6985   -8.8518    0.0000 C   0  0  0  0  0  0  0  0  0  0  0  0
   -8.9037   -7.5798    0.0000 C   0  0  0  0  0  0  0  0  0  0  0  0
   -5.5938   -5.7546    0.0000 C   0  0  0  0  0  0  0  0  0  0  0  0
  -11.3448   -2.3244    0.0000 C   0  0  0  0  0  0  0  0  0  0  0  0
   -4.1672   -5.2910    0.0000 C   0  0  0  0  0  0  0  0  0  0  0  0
   -4.1672   -6.7910    0.0000 O   0  0  0  0  0  0  0  0  0  0  0  0
   -2.7406   -7.2546    0.0000 C   0  0  0  0  0  0  0  0  0  0  0  0
   -1.8590   -6.0410    0.0000 C   0  0  0  0  0  0  0  0  0  0  0  0
   -2.7406   -4.8275    0.0000 C   0  0  0  0  0  0  0  0  0  0  0  0
   -1.5271   -5.7092    0.0000 C   0  0  0  0  0  0  0  0  0  0  0  0
   -2.5838   -3.3357    0.0000 C   0  0  0  0  0  0  0  0  0  0  0  0
  1  2  1  0
  2  3  1  0
  3  4  2  0
  3  5  1  0
  5  6  2  0
  6  7  1  0
  7  8  1  0
  8  9  2  0
  9 10  1  0
 10 11  2  0
 11 12  1  0
 12 13  2  0
 13 14  1  0
 14 15  1  6
 15 16  1  0
 16 17  1  0
 17 18  1  0
 18 19  1  0
 19 20  3  0
 18 21  1  0
 21 22  1  0
 22 23  1  0
 23 24  1  0
 25 24  1  1
 25 26  1  0
 26 27  1  0
 27 28  1  0
 28 29  1  0
 29 30  1  6
 30 31  1  0
 31 32  1  0
 32 33  1  0
 33 34  1  0
 34 35  1  0
 35 36  2  0
 36 37  1  0
 37 38  1  0
 38 39  2  0
 39 40  1  0
 40 41  1  0
 39 42  1  0
 42 43  2  0
 43 44  1  0
 44 45  2  0
 37 46  1  0
 32 47  1  0
 21 48  1  0
 48 49  1  1
 49 50  1  0
 50 51  1  0
 52 51  1  1
 52 53  1  0
 52 54  1  0
 53  5  1  0
 14  6  1  0
 54 17  1  6
 13  8  1  0
 54 14  1  0
 46 21  1  0
 52 48  1  0
 36 23  1  0
 45 38  1  0
 29 25  1  0
 45 35  1  0
 47 25  1  0
M  END
$$$$
