16R-13
     RDKit          2D

 23 24  0  0  0  0  0  0  0  0999 V2000
   -6.4913    1.2990    0.0000 C   0  0  0  0  0  0  0  0  0  0  0  0
   -4.9913    1.2990    0.0000 C   0  0  0  0  0  0  0  0  0  0  0  0
   -4.2413    0.0000    0.0000 C   0  0  0  0  0  0  0  0  0  0  0  0
   -4.9913   -1.2990    0.0000 O   0  0  0  0  0  0  0  0  0  0  0  0
   -2.7413    0.0000    0.0000 C   0  0  0  0  0  0  0  0  0  0  0  0
   -1.8596    1.2135    0.0000 C   0  0  0  0  0  0  0  0  0  0  0  0
   -0.4330    0.7500    0.0000 C   0  0  0  0  0  0  0  0  0  0  0  0
    0.8660    0.0000    0.0000 O   0  0  0  0  0  0  0  0  0  0  0  0
   -0.4330   -0.7500    0.0000 C   0  0  0  0  0  0  0  0  0  0  0  0
   -1.8596   -1.2135    0.0000 C   0  0  0  0  0  0  0  0  0  0  0  0
   -2.3231   -2.6401    0.0000 C   0  0  0  0  0  0  0  0  0  0  0  0
   -1.3194   -3.7548    0.0000 C   0  0  0  0  0  0  0  0  0  0  0  0
    0.1478   -3.4430    0.0000 C   0  0  0  0  0  0  0  0  0  0  0  0
    1.1515   -4.5577    0.0000 C   0  0  0  0  0  0  0  0  0  0  0  0
    2.6187   -4.2458    0.0000 C   0  0  0  0  0  0  0  0  0  0  0  0
    3.6224   -5.3605    0.0000 C   0  0  0  0  0  0  0  0  0  0  0  0
    5.0896   -5.0487    0.0000 C   0  0  0  0  0  0  0  0  0  0  0  0
    6.0933   -6.1634    0.0000 C   0  0  0  0  0  0  0  0  0  0  0  0
    7.5605   -5.8515    0.0000 C   0  0  0  0  0  0  0  0  0  0  0  0
    8.5642   -6.9662    0.0000 C   0  0  0  0  0  0  0  0  0  0  0  0
    8.1007   -8.3928    0.0000 O   0  0  0  0  0  0  0  0  0  0  0  0
   10.0315   -6.6544    0.0000 O   0  0  0  0  0  0  0  0  0  0  0  0
   11.0352   -7.7691    0.0000 C   0  0  0  0  0  0  0  0  0  0  0  0
  1  2  1  0
  2  3  1  0
  3  4  1  6
  3  5  1  0
  5  6  1  6
  7  6  1  6
  7  8  1  0
  9  8  1  6
  9 10  1  0
 10 11  1  1
 11 12  2  0
 12 13  1  0
 13 14  1  0
 14 15  1  0
 15 16  1  0
 16 17  1  0
 17 18  1  0
 18 19  1  0
 19 20  1  0
 20 21  2  0
 20 22  1  0
 22 23  1  0
 10  5  1  0
  9  7  1  0
M  END
$$$$
16S-13
     RDKit          2D

 23 24  0  0  0  0  0  0  0  0999 V2000
   -6.4913    1.2990    0.0000 C   0  0  0  0  0  0  0  0  0  0  0  0
   -4.9913    1.2990    0.0000 C   0  0  0  0  0  0  0  0  0  0  0  0
   -4.2413    0.0000    0.0000 C   0  0  0  0  0  0  0  0  0  0  0  0
   -4.9913   -1.2990    0.0000 O   0  0  0  0  0  0  0  0  0  0  0  0
   -2.7413    0.0000    0.0000 C   0  0  0  0  0  0  0  0  0  0  0  0
   -1.8596    1.2135    0.0000 C   0  0  0  0  0  0  0  0  0  0  0  0
   -0.4330    0.7500    0.0000 C   0  0  0  0  0  0  0  0  0  0  0  0
    0.8660    0.0000    0.0000 O   0  0  0  0  0  0  0  0  0  0  0  0
   -0.4330   -0.7500    0.0000 C   0  0  0  0  0  0  0  0  0  0  0  0
   -1.8596   -1.2135    0.0000 C   0  0  0  0  0  0  0  0  0  0  0  0
   -2.3231   -2.6401    0.0000 C   0  0  0  0  0  0  0  0  0  0  0  0
   -1.3194   -3.7548    0.0000 C   0  0  0  0  0  0  0  0  0  0  0  0
    0.1478   -3.4430    0.0000 C   0  0  0  0  0  0  0  0  0  0  0  0
    1.1515   -4.5577    0.0000 C   0  0  0  0  0  0  0  0  0  0  0  0
    2.6187   -4.2458    0.0000 C   0  0  0  0  0  0  0  0  0  0  0  0
    3.6224   -5.3605    0.0000 C   0  0  0  0  0  0  0  0  0  0  0  0
    5.0896   -5.0487    0.0000 C   0  0  0  0  0  0  0  0  0  0  0  0
    6.0933   -6.1634    0.0000 C   0  0  0  0  0  0  0  0  0  0  0  0
    7.5605   -5.8515    0.0000 C   0  0  0  0  0  0  0  0  0  0  0  0
    8.5642   -6.9662    0.0000 C   0  0  0  0  0  0  0  0  0  0  0  0
    8.1007   -8.3928    0.0000 O   0  0  0  0  0  0  0  0  0  0  0  0
   10.0315   -6.6544    0.0000 O   0  0  0  0  0  0  0  0  0  0  0  0
   11.0352   -7.7691    0.0000 C   0  0  0  0  0  0  0  0  0  0  0  0
  1  2  1  0
  2  3  1  0
  3  4  1  1
  3  5  1  0
  5  6  1  6
  7  6  1  6
  7  8  1  0
  9  8  1  6
  9 10  1  0
 10 11  1  1
 11 12  2  0
 12 13  1  0
 13 14  1  0
 14 15  1  0
 15 16  1  0
 16 17  1  0
 17 18  1  0
 18 19  1  0
 19 20  1  0
 20 21  2  0
 20 22  1  0
 22 23  1  0
 10  5  1  0
  9  7  1  0
M  END
$$$$
16R-4
     RDKit          2D

 22 23  0  0  0  0  0  0  0  0999 V2000
   -6.4913    1.2990    0.0000 C   0  0  0  0  0  0  0  0  0  0  0  0
   -4.9913    1.2990    0.0000 C   0  0  0  0  0  0  0  0  0  0  0  0
   -4.2413    0.0000    0.0000 C   0  0  0  0  0  0  0  0  0  0  0  0
   -4.9913   -1.2990    0.0000 O   0  0  0  0  0  0  0  0  0  0  0  0
   -2.7413    0.0000    0.0000 C   0  0  0  0  0  0  0  0  0  0  0  0
   -1.8596    1.2135    0.0000 C   0  0  0  0  0  0  0  0  0  0  0  0
   -0.4330    0.7500    0.0000 C   0  0  0  0  0  0  0  0  0  0  0  0
    0.8660    0.0000    0.0000 O   0  0  0  0  0  0  0  0  0  0  0  0
   -0.4330   -0.7500    0.0000 C   0  0  0  0  0  0  0  0  0  0  0  0
   -1.8596   -1.2135    0.0000 C   0  0  0  0  0  0  0  0  0  0  0  0
   -2.3231   -2.6401    0.0000 C   0  0  0  0  0  0  0  0  0  0  0  0
   -1.3194   -3.7548    0.0000 C   0  0  0  0  0  0  0  0  0  0  0  0
    0.1478   -3.4430    0.0000 C   0  0  0  0  0  0  0  0  0  0  0  0
    1.1515   -4.5577    0.0000 C   0  0  0  0  0  0  0  0  0  0  0  0
    2.6187   -4.2458    0.0000 C   0  0  0  0  0  0  0  0  0  0  0  0
    3.6224   -5.3605    0.0000 C   0  0  0  0  0  0  0  0  0  0  0  0
    5.0896   -5.0487    0.0000 C   0  0  0  0  0  0  0  0  0  0  0  0
    6.0933   -6.1634    0.0000 C   0  0  0  0  0  0  0  0  0  0  0  0
    7.5605   -5.8515    0.0000 C   0  0  0  0  0  0  0  0  0  0  0  0
    8.5642   -6.9662    0.0000 C   0  0  0  0  0  0  0  0  0  0  0  0
    8.1007   -8.3928    0.0000 O   0  0  0  0  0  0  0  0  0  0  0  0
   10.0315   -6.6544    0.0000 O   0  0  0  0  0  0  0  0  0  0  0  0
  1  2  1  0
  2  3  1  0
  3  4  1  6
  3  5  1  0
  5  6  1  6
  7  6  1  6
  7  8  1  0
  9  8  1  6
  9 10  1  0
 10 11  1  1
 11 12  2  0
 12 13  1  0
 13 14  1  0
 14 15  1  0
 15 16  1  0
 16 17  1  0
 17 18  1  0
 18 19  1  0
 19 20  1  0
 20 21  2  0
 20 22  1  0
 10  5  1  0
  9  7  1  0
M  END
$$$$
16S-4
     RDKit          2D

 22 23  0  0  0  0  0  0  0  0999 V2000
   -6.4913    1.2990    0.0000 C   0  0  0  0  0  0  0  0  0  0  0  0
   -4.9913    1.2990    0.0000 C   0  0  0  0  0  0  0  0  0  0  0  0
   -4.2413    0.0000    0.0000 C   0  0  0  0  0  0  0  0  0  0  0  0
   -4.9913   -1.2990    0.0000 O   0  0  0  0  0  0  0  0  0  0  0  0
   -2.7413    0.0000    0.0000 C   0  0  0  0  0  0  0  0  0  0  0  0
   -1.8596    1.2135    0.0000 C   0  0  0  0  0  0  0  0  0  0  0  0
   -0.4330    0.7500    0.0000 C   0  0  0  0  0  0  0  0  0  0  0  0
    0.8660    0.0000    0.0000 O   0  0  0  0  0  0  0  0  0  0  0  0
   -0.4330   -0.7500    0.0000 C   0  0  0  0  0  0  0  0  0  0  0  0
   -1.8596   -1.2135    0.0000 C   0  0  0  0  0  0  0  0  0  0  0  0
   -2.3231   -2.6401    0.0000 C   0  0  0  0  0  0  0  0  0  0  0  0
   -1.3194   -3.7548    0.0000 C   0  0  0  0  0  0  0  0  0  0  0  0
    0.1478   -3.4430    0.0000 C   0  0  0  0  0  0  0  0  0  0  0  0
    1.1515   -4.5577    0.0000 C   0  0  0  0  0  0  0  0  0  0  0  0
    2.6187   -4.2458    0.0000 C   0  0  0  0  0  0  0  0  0  0  0  0
    3.6224   -5.3605    0.0000 C   0  0  0  0  0  0  0  0  0  0  0  0
    5.0896   -5.0487    0.0000 C   0  0  0  0  0  0  0  0  0  0  0  0
    6.0933   -6.1634    0.0000 C   0  0  0  0  0  0  0  0  0  0  0  0
    7.5605   -5.8515    0.0000 C   0  0  0  0  0  0  0  0  0  0  0  0
    8.5642   -6.9662    0.0000 C   0  0  0  0  0  0  0  0  0  0  0  0
    8.1007   -8.3928    0.0000 O   0  0  0  0  0  0  0  0  0  0  0  0
   10.0315   -6.6544    0.0000 O   0  0  0  0  0  0  0  0  0  0  0  0
  1  2  1  0
  2  3  1  0
  3  4  1  1
  3  5  1  0
  5  6  1  6
  7  6  1  6
  7  8  1  0
  9  8  1  6
  9 10  1  0
 10 11  1  1
 11 12  2  0
 12 13  1  0
 13 14  1  0
 14 15  1  0
 15 16  1  0
 16 17  1  0
 17 18  1  0
 18 19  1  0
 19 20  1  0
 20 21  2  0
 20 22  1  0
 10  5  1  0
  9  7  1  0
M  END
$$$$
16R-15
     RDKit          2D

 24 24  0  0  0  0  0  0  0  0999 V2000
    5.0260   -1.2990    0.0000 C   0  0  0  0  0  0  0  0  0  0  0  0
    3.5260   -1.2990    0.0000 C   0  0  0  0  0  0  0  0  0  0  0  0
    2.7760    0.0000    0.0000 C   0  0  0  0  0  0  0  0  0  0  0  0
    3.5260    1.2990    0.0000 O   0  0  0  0  0  0  0  0  0  0  0  0
    1.2760    0.0000    0.0000 C   0  0  0  0  0  0  0  0  0  0  0  0
    0.3943    1.2135    0.0000 C   0  0  0  0  0  0  0  0  0  0  0  0
   -1.0323    0.7500    0.0000 C   0  0  0  0  0  0  0  0  0  0  0  0
   -2.2458    1.6317    0.0000 O   0  0  0  0  0  0  0  0  0  0  0  0
   -1.0323   -0.7500    0.0000 C   0  0  0  0  0  0  0  0  0  0  0  0
   -2.2458   -1.6317    0.0000 O   0  0  0  0  0  0  0  0  0  0  0  0
    0.3943   -1.2135    0.0000 C   0  0  0  0  0  0  0  0  0  0  0  0
    0.8578   -2.6401    0.0000 C   0  0  0  0  0  0  0  0  0  0  0  0
   -0.1459   -3.7548    0.0000 C   0  0  0  0  0  0  0  0  0  0  0  0
   -1.6131   -3.4430    0.0000 C   0  0  0  0  0  0  0  0  0  0  0  0
   -2.6168   -4.5577    0.0000 C   0  0  0  0  0  0  0  0  0  0  0  0
   -4.0840   -4.2458    0.0000 C   0  0  0  0  0  0  0  0  0  0  0  0
   -5.0877   -5.3605    0.0000 C   0  0  0  0  0  0  0  0  0  0  0  0
   -6.5549   -5.0487    0.0000 C   0  0  0  0  0  0  0  0  0  0  0  0
   -7.5586   -6.1634    0.0000 C   0  0  0  0  0  0  0  0  0  0  0  0
   -9.0258   -5.8515    0.0000 C   0  0  0  0  0  0  0  0  0  0  0  0
  -10.0295   -6.9662    0.0000 C   0  0  0  0  0  0  0  0  0  0  0  0
   -9.5660   -8.3928    0.0000 O   0  0  0  0  0  0  0  0  0  0  0  0
  -11.4968   -6.6544    0.0000 O   0  0  0  0  0  0  0  0  0  0  0  0
  -12.5005   -7.7691    0.0000 C   0  0  0  0  0  0  0  0  0  0  0  0
  1  2  1  0
  2  3  1  0
  3  4  1  6
  3  5  1  0
  5  6  1  1
  6  7  1  0
  7  8  1  6
  7  9  1  0
  9 10  1  1
  9 11  1  0
 11 12  1  6
 12 13  2  0
 13 14  1  0
 14 15  1  0
 15 16  1  0
 16 17  1  0
 17 18  1  0
 18 19  1  0
 19 20  1  0
 20 21  1  0
 21 22  2  0
 21 23  1  0
 23 24  1  0
 11  5  1  0
M  END
$$$$
16S-15
     RDKit          2D

 24 24  0  0  0  0  0  0  0  0999 V2000
    5.0260   -1.2990    0.0000 C   0  0  0  0  0  0  0  0  0  0  0  0
    3.5260   -1.2990    0.0000 C   0  0  0  0  0  0  0  0  0  0  0  0
    2.7760    0.0000    0.0000 C   0  0  0  0  0  0  0  0  0  0  0  0
    3.5260    1.2990    0.0000 O   0  0  0  0  0  0  0  0  0  0  0  0
    1.2760    0.0000    0.0000 C   0  0  0  0  0  0  0  0  0  0  0  0
    0.3943    1.2135    0.0000 C   0  0  0  0  0  0  0  0  0  0  0  0
   -1.0323    0.7500    0.0000 C   0  0  0  0  0  0  0  0  0  0  0  0
   -2.2458    1.6317    0.0000 O   0  0  0  0  0  0  0  0  0  0  0  0
   -1.0323   -0.7500    0.0000 C   0  0  0  0  0  0  0  0  0  0  0  0
   -2.2458   -1.6317    0.0000 O   0  0  0  0  0  0  0  0  0  0  0  0
    0.3943   -1.2135    0.0000 C   0  0  0  0  0  0  0  0  0  0  0  0
    0.8578   -2.6401    0.0000 C   0  0  0  0  0  0  0  0  0  0  0  0
   -0.1459   -3.7548    0.0000 C   0  0  0  0  0  0  0  0  0  0  0  0
   -1.6131   -3.4430    0.0000 C   0  0  0  0  0  0  0  0  0  0  0  0
   -2.6168   -4.5577    0.0000 C   0  0  0  0  0  0  0  0  0  0  0  0
   -4.0840   -4.2458    0.0000 C   0  0  0  0  0  0  0  0  0  0  0  0
   -5.0877   -5.3605    0.0000 C   0  0  0  0  0  0  0  0  0  0  0  0
   -6.5549   -5.0487    0.0000 C   0  0  0  0  0  0  0  0  0  0  0  0
   -7.5586   -6.1634    0.0000 C   0  0  0  0  0  0  0  0  0  0  0  0
   -9.0258   -5.8515    0.0000 C   0  0  0  0  0  0  0  0  0  0  0  0
  -10.0295   -6.9662    0.0000 C   0  0  0  0  0  0  0  0  0  0  0  0
   -9.5660   -8.3928    0.0000 O   0  0  0  0  0  0  0  0  0  0  0  0
  -11.4968   -6.6544    0.0000 O   0  0  0  0  0  0  0  0  0  0  0  0
  -12.5005   -7.7691    0.0000 C   0  0  0  0  0  0  0  0  0  0  0  0
  1  2  1  0
  2  3  1  0
  3  4  1  1
  3  5  1  0
  5  6  1  1
  6  7  1  0
  7  8  1  6
  7  9  1  0
  9 10  1  1
  9 11  1  0
 11 12  1  6
 12 13  2  0
 13 14  1  0
 14 15  1  0
 15 16  1  0
 16 17  1  0
 17 18  1  0
 18 19  1  0
 19 20  1  0
 20 21  1  0
 21 22  2  0
 21 23  1  0
 23 24  1  0
 11  5  1  0
M  END
$$$$
16
     RDKit          2D

 24 25  0  0  0  0  0  0  0  0999 V2000
   -4.2539   -4.3786    0.0000 C   0  0  0  0  0  0  0  0  0  0  0  0
   -3.7903   -2.9520    0.0000 C   0  0  0  0  0  0  0  0  0  0  0  0
   -2.3231   -2.6401    0.0000 C   0  0  0  0  0  0  0  0  0  0  0  0
   -1.3194   -3.7548    0.0000 O   0  0  0  0  0  0  0  0  0  0  0  0
   -1.8596   -1.2135    0.0000 C   0  0  0  0  0  0  0  0  0  0  0  0
   -2.7413    0.0000    0.0000 C   0  0  0  0  0  0  0  0  0  0  0  0
   -1.8596    1.2135    0.0000 C   0  0  0  0  0  0  0  0  0  0  0  0
   -2.3231    2.6401    0.0000 O   0  0  0  0  0  0  0  0  0  0  0  0
   -0.4330    0.7500    0.0000 C   0  0  0  0  0  0  0  0  0  0  0  0
    0.8660    0.0000    0.0000 C   0  0  0  0  0  0  0  0  0  0  0  0
    2.3660    0.0000    0.0000 C   0  0  0  0  0  0  0  0  0  0  0  0
    3.1160    1.2990    0.0000 O   0  0  0  0  0  0  0  0  0  0  0  0
    3.1160   -1.2990    0.0000 C   0  0  0  0  0  0  0  0  0  0  0  0
    4.6160   -1.2990    0.0000 C   0  0  0  0  0  0  0  0  0  0  0  0
    5.3660   -2.5981    0.0000 C   0  0  0  0  0  0  0  0  0  0  0  0
    6.8660   -2.5981    0.0000 C   0  0  0  0  0  0  0  0  0  0  0  0
    7.6160   -3.8971    0.0000 C   0  0  0  0  0  0  0  0  0  0  0  0
    9.1160   -3.8971    0.0000 C   0  0  0  0  0  0  0  0  0  0  0  0
    9.8660   -5.1962    0.0000 C   0  0  0  0  0  0  0  0  0  0  0  0
   11.3660   -5.1962    0.0000 C   0  0  0  0  0  0  0  0  0  0  0  0
   12.1160   -3.8971    0.0000 O   0  0  0  0  0  0  0  0  0  0  0  0
   12.1160   -6.4952    0.0000 O   0  0  0  0  0  0  0  0  0  0  0  0
   13.6160   -6.4952    0.0000 C   0  0  0  0  0  0  0  0  0  0  0  0
   -0.4330   -0.7500    0.0000 C   0  0  0  0  0  0  0  0  0  0  0  0
  1  2  1  0
  2  3  1  0
  3  4  1  1
  3  5  1  0
  5  6  1  6
  6  7  1  0
  7  8  1  6
  9  7  1  1
  9 10  1  0
 10 11  1  6
 11 12  1  0
 11 13  1  0
 13 14  1  0
 14 15  1  0
 15 16  1  0
 16 17  1  0
 17 18  1  0
 18 19  1  0
 19 20  1  0
 20 21  2  0
 20 22  1  0
 22 23  1  0
 24 10  1  1
 24  5  1  0
 24  9  1  0
M  END
$$$$
16R-5
     RDKit          2D

 23 23  0  0  0  0  0  0  0  0999 V2000
    5.0260   -1.2990    0.0000 C   0  0  0  0  0  0  0  0  0  0  0  0
    3.5260   -1.2990    0.0000 C   0  0  0  0  0  0  0  0  0  0  0  0
    2.7760    0.0000    0.0000 C   0  0  0  0  0  0  0  0  0  0  0  0
    3.5260    1.2990    0.0000 O   0  0  0  0  0  0  0  0  0  0  0  0
    1.2760    0.0000    0.0000 C   0  0  0  0  0  0  0  0  0  0  0  0
    0.3943    1.2135    0.0000 C   0  0  0  0  0  0  0  0  0  0  0  0
   -1.0323    0.7500    0.0000 C   0  0  0  0  0  0  0  0  0  0  0  0
   -2.2458    1.6317    0.0000 O   0  0  0  0  0  0  0  0  0  0  0  0
   -1.0323   -0.7500    0.0000 C   0  0  0  0  0  0  0  0  0  0  0  0
   -2.2458   -1.6317    0.0000 O   0  0  0  0  0  0  0  0  0  0  0  0
    0.3943   -1.2135    0.0000 C   0  0  0  0  0  0  0  0  0  0  0  0
    0.8578   -2.6401    0.0000 C   0  0  0  0  0  0  0  0  0  0  0  0
   -0.1459   -3.7548    0.0000 C   0  0  0  0  0  0  0  0  0  0  0  0
   -1.6131   -3.4430    0.0000 C   0  0  0  0  0  0  0  0  0  0  0  0
   -2.6168   -4.5577    0.0000 C   0  0  0  0  0  0  0  0  0  0  0  0
   -4.0840   -4.2458    0.0000 C   0  0  0  0  0  0  0  0  0  0  0  0
   -5.0877   -5.3605    0.0000 C   0  0  0  0  0  0  0  0  0  0  0  0
   -6.5549   -5.0487    0.0000 C   0  0  0  0  0  0  0  0  0  0  0  0
   -7.5586   -6.1634    0.0000 C   0  0  0  0  0  0  0  0  0  0  0  0
   -9.0258   -5.8515    0.0000 C   0  0  0  0  0  0  0  0  0  0  0  0
  -10.0295   -6.9662    0.0000 C   0  0  0  0  0  0  0  0  0  0  0  0
   -9.5660   -8.3928    0.0000 O   0  0  0  0  0  0  0  0  0  0  0  0
  -11.4968   -6.6544    0.0000 O   0  0  0  0  0  0  0  0  0  0  0  0
  1  2  1  0
  2  3  1  0
  3  4  1  6
  3  5  1  0
  5  6  1  1
  6  7  1  0
  7  8  1  6
  7  9  1  0
  9 10  1  1
  9 11  1  0
 11 12  1  6
 12 13  2  0
 13 14  1  0
 14 15  1  0
 15 16  1  0
 16 17  1  0
 17 18  1  0
 18 19  1  0
 19 20  1  0
 20 21  1  0
 21 22  2  0
 21 23  1  0
 11  5  1  0
M  END
$$$$
16S-5
     RDKit          2D

 23 23  0  0  0  0  0  0  0  0999 V2000
    5.0260   -1.2990    0.0000 C   0  0  0  0  0  0  0  0  0  0  0  0
    3.5260   -1.2990    0.0000 C   0  0  0  0  0  0  0  0  0  0  0  0
    2.7760    0.0000    0.0000 C   0  0  0  0  0  0  0  0  0  0  0  0
    3.5260    1.2990    0.0000 O   0  0  0  0  0  0  0  0  0  0  0  0
    1.2760    0.0000    0.0000 C   0  0  0  0  0  0  0  0  0  0  0  0
    0.3943    1.2135    0.0000 C   0  0  0  0  0  0  0  0  0  0  0  0
   -1.0323    0.7500    0.0000 C   0  0  0  0  0  0  0  0  0  0  0  0
   -2.2458    1.6317    0.0000 O   0  0  0  0  0  0  0  0  0  0  0  0
   -1.0323   -0.7500    0.0000 C   0  0  0  0  0  0  0  0  0  0  0  0
   -2.2458   -1.6317    0.0000 O   0  0  0  0  0  0  0  0  0  0  0  0
    0.3943   -1.2135    0.0000 C   0  0  0  0  0  0  0  0  0  0  0  0
    0.8578   -2.6401    0.0000 C   0  0  0  0  0  0  0  0  0  0  0  0
   -0.1459   -3.7548    0.0000 C   0  0  0  0  0  0  0  0  0  0  0  0
   -1.6131   -3.4430    0.0000 C   0  0  0  0  0  0  0  0  0  0  0  0
   -2.6168   -4.5577    0.0000 C   0  0  0  0  0  0  0  0  0  0  0  0
   -4.0840   -4.2458    0.0000 C   0  0  0  0  0  0  0  0  0  0  0  0
   -5.0877   -5.3605    0.0000 C   0  0  0  0  0  0  0  0  0  0  0  0
   -6.5549   -5.0487    0.0000 C   0  0  0  0  0  0  0  0  0  0  0  0
   -7.5586   -6.1634    0.0000 C   0  0  0  0  0  0  0  0  0  0  0  0
   -9.0258   -5.8515    0.0000 C   0  0  0  0  0  0  0  0  0  0  0  0
  -10.0295   -6.9662    0.0000 C   0  0  0  0  0  0  0  0  0  0  0  0
   -9.5660   -8.3928    0.0000 O   0  0  0  0  0  0  0  0  0  0  0  0
  -11.4968   -6.6544    0.0000 O   0  0  0  0  0  0  0  0  0  0  0  0
  1  2  1  0
  2  3  1  0
  3  4  1  1
  3  5  1  0
  5  6  1  1
  6  7  1  0
  7  8  1  6
  7  9  1  0
  9 10  1  1
  9 11  1  0
 11 12  1  6
 12 13  2  0
 13 14  1  0
 14 15  1  0
 15 16  1  0
 16 17  1  0
 17 18  1  0
 18 19  1  0
 19 20  1  0
 20 21  1  0
 21 22  2  0
 21 23  1  0
 11  5  1  0
M  END
$$$$
