12
     RDKit          2D

 34 35  0  0  0  0  0  0  0  0999 V2000
   -7.5933  -18.3481    0.0000 C   0  0  0  0  0  0  0  0  0  0  0  0
   -7.5933  -16.8481    0.0000 C   0  0  0  0  0  0  0  0  0  0  0  0
   -8.8923  -16.0981    0.0000 C   0  0  0  0  0  0  0  0  0  0  0  0
   -6.2942  -16.0981    0.0000 C   0  0  0  0  0  0  0  0  0  0  0  0
   -6.2942  -14.5981    0.0000 C   0  0  0  0  0  0  0  0  0  0  0  0
   -4.9952  -13.8481    0.0000 C   0  0  0  0  0  0  0  0  0  0  0  0
   -4.9952  -12.3481    0.0000 C   0  0  0  0  0  0  0  0  0  0  0  0
   -6.2942  -11.5981    0.0000 C   0  0  0  0  0  0  0  0  0  0  0  0
   -3.6962  -11.5981    0.0000 C   0  0  0  0  0  0  0  0  0  0  0  0
   -3.6962  -10.0981    0.0000 C   0  0  0  0  0  0  0  0  0  0  0  0
   -2.3971   -9.3481    0.0000 C   0  0  0  0  0  0  0  0  0  0  0  0
   -2.3971   -7.8481    0.0000 C   0  0  0  0  0  0  0  0  0  0  0  0
   -3.6962   -7.0981    0.0000 C   0  0  0  0  0  0  0  0  0  0  0  0
   -1.0981   -7.0981    0.0000 C   0  0  0  0  0  0  0  0  0  0  0  0
   -1.0981   -5.5981    0.0000 C   0  0  0  0  0  0  0  0  0  0  0  0
    0.2010   -4.8481    0.0000 C   0  0  0  0  0  0  0  0  0  0  0  0
    0.2010   -3.3481    0.0000 O   0  0  0  0  0  0  0  0  0  0  0  0
    1.5000   -2.5981    0.0000 Si  0  0  0  0  0  4  0  0  0  0  0  0
    0.7500   -1.2990    0.0000 C   0  0  0  0  0  0  0  0  0  0  0  0
    1.5000    0.0000    0.0000 C   0  0  0  0  0  0  0  0  0  0  0  0
    0.7500    1.2990    0.0000 C   0  0  0  0  0  0  0  0  0  0  0  0
   -0.7500    1.2990    0.0000 C   0  0  0  0  0  0  0  0  0  0  0  0
   -1.5000    0.0000    0.0000 C   0  0  0  0  0  0  0  0  0  0  0  0
   -0.7500   -1.2990    0.0000 C   0  0  0  0  0  0  0  0  0  0  0  0
    2.7990   -1.8481    0.0000 C   0  0  0  0  0  0  0  0  0  0  0  0
    4.0981   -2.5981    0.0000 C   0  0  0  0  0  0  0  0  0  0  0  0
    5.3971   -1.8481    0.0000 C   0  0  0  0  0  0  0  0  0  0  0  0
    5.3971   -0.3481    0.0000 C   0  0  0  0  0  0  0  0  0  0  0  0
    4.0981    0.4019    0.0000 C   0  0  0  0  0  0  0  0  0  0  0  0
    2.7990   -0.3481    0.0000 C   0  0  0  0  0  0  0  0  0  0  0  0
    2.2500   -3.8971    0.0000 C   0  0  0  0  0  0  0  0  0  0  0  0
    3.5490   -3.1471    0.0000 C   0  0  0  0  0  0  0  0  0  0  0  0
    0.9510   -4.6471    0.0000 C   0  0  0  0  0  0  0  0  0  0  0  0
    3.0000   -5.1962    0.0000 C   0  0  0  0  0  0  0  0  0  0  0  0
  1  2  1  0
  2  3  1  0
  2  4  2  0
  4  5  1  0
  5  6  1  0
  6  7  1  0
  7  8  1  0
  7  9  2  0
  9 10  1  0
 10 11  1  0
 11 12  1  0
 12 13  1  0
 12 14  2  0
 14 15  1  0
 15 16  1  0
 16 17  1  0
 17 18  1  0
 18 19  1  0
 19 20  2  0
 20 21  1  0
 21 22  2  0
 22 23  1  0
 23 24  2  0
 18 25  1  0
 25 26  2  0
 26 27  1  0
 27 28  2  0
 28 29  1  0
 29 30  2  0
 18 31  1  0
 31 32  1  0
 31 33  1  0
 31 34  1  0
 24 19  1  0
 30 25  1  0
M  END
$$$$
13
     RDKit          2D

 35 37  0  0  0  0  0  0  0  0999 V2000
   -3.6962   -7.0981    0.0000 C   0  0  0  0  0  0  0  0  0  0  0  0
   -2.3971   -7.8481    0.0000 C   0  0  0  0  0  0  0  0  0  0  0  0
   -1.0981   -7.0981    0.0000 C   0  0  0  0  0  0  0  0  0  0  0  0
   -1.0981   -5.5981    0.0000 C   0  0  0  0  0  0  0  0  0  0  0  0
    0.2010   -4.8481    0.0000 C   0  0  0  0  0  0  0  0  0  0  0  0
    0.2010   -3.3481    0.0000 O   0  0  0  0  0  0  0  0  0  0  0  0
    1.5000   -2.5981    0.0000 Si  0  0  0  0  0  4  0  0  0  0  0  0
    0.7500   -1.2990    0.0000 C   0  0  0  0  0  0  0  0  0  0  0  0
    1.5000    0.0000    0.0000 C   0  0  0  0  0  0  0  0  0  0  0  0
    0.7500    1.2990    0.0000 C   0  0  0  0  0  0  0  0  0  0  0  0
   -0.7500    1.2990    0.0000 C   0  0  0  0  0  0  0  0  0  0  0  0
   -1.5000    0.0000    0.0000 C   0  0  0  0  0  0  0  0  0  0  0  0
   -0.7500   -1.2990    0.0000 C   0  0  0  0  0  0  0  0  0  0  0  0
    2.7990   -1.8481    0.0000 C   0  0  0  0  0  0  0  0  0  0  0  0
    4.0981   -2.5981    0.0000 C   0  0  0  0  0  0  0  0  0  0  0  0
    5.3971   -1.8481    0.0000 C   0  0  0  0  0  0  0  0  0  0  0  0
    5.3971   -0.3481    0.0000 C   0  0  0  0  0  0  0  0  0  0  0  0
    4.0981    0.4019    0.0000 C   0  0  0  0  0  0  0  0  0  0  0  0
    2.7990   -0.3481    0.0000 C   0  0  0  0  0  0  0  0  0  0  0  0
    2.2500   -3.8971    0.0000 C   0  0  0  0  0  0  0  0  0  0  0  0
    3.5490   -3.1471    0.0000 C   0  0  0  0  0  0  0  0  0  0  0  0
    0.9510   -4.6471    0.0000 C   0  0  0  0  0  0  0  0  0  0  0  0
    3.0000   -5.1962    0.0000 C   0  0  0  0  0  0  0  0  0  0  0  0
   -2.3971   -9.3481    0.0000 C   0  0  0  0  0  0  0  0  0  0  0  0
   -3.6962  -10.0981    0.0000 C   0  0  0  0  0  0  0  0  0  0  0  0
   -3.6962  -11.5981    0.0000 C   0  0  0  0  0  0  0  0  0  0  0  0
   -4.9952  -12.3481    0.0000 C   0  0  0  0  0  0  0  0  0  0  0  0
   -6.2942  -11.5981    0.0000 C   0  0  0  0  0  0  0  0  0  0  0  0
   -4.9952  -13.8481    0.0000 C   0  0  0  0  0  0  0  0  0  0  0  0
   -6.2942  -14.5981    0.0000 C   0  0  0  0  0  0  0  0  0  0  0  0
   -6.2942  -16.0981    0.0000 C   0  0  0  0  0  0  0  0  0  0  0  0
   -5.5442  -17.3971    0.0000 O   0  0  0  0  0  0  0  0  0  0  0  0
   -7.0442  -17.3971    0.0000 C   0  0  0  0  0  0  0  0  0  0  0  0
   -7.3047  -18.8743    0.0000 C   0  0  0  0  0  0  0  0  0  0  0  0
   -8.4538  -16.8841    0.0000 C   0  0  0  0  0  0  0  0  0  0  0  0
  1  2  1  0
  2  3  2  0
  3  4  1  0
  4  5  1  0
  5  6  1  0
  6  7  1  0
  7  8  1  0
  8  9  2  0
  9 10  1  0
 10 11  2  0
 11 12  1  0
 12 13  2  0
  7 14  1  0
 14 15  2  0
 15 16  1  0
 16 17  2  0
 17 18  1  0
 18 19  2  0
  7 20  1  0
 20 21  1  0
 20 22  1  0
 20 23  1  0
  2 24  1  0
 24 25  1  0
 25 26  1  0
 26 27  2  0
 27 28  1  0
 27 29  1  0
 29 30  1  0
 30 31  1  0
 31 32  1  0
 32 33  1  0
 33 34  1  0
 33 35  1  0
 13  8  1  0
 19 14  1  0
 33 31  1  0
M  END
$$$$
14
     RDKit          2D

 32 33  0  0  0  0  0  0  0  0999 V2000
   -6.2942  -11.5981    0.0000 C   0  0  0  0  0  0  0  0  0  0  0  0
   -4.9952  -12.3481    0.0000 C   0  0  0  0  0  0  0  0  0  0  0  0
   -3.6962  -11.5981    0.0000 C   0  0  0  0  0  0  0  0  0  0  0  0
   -3.6962  -10.0981    0.0000 C   0  0  0  0  0  0  0  0  0  0  0  0
   -2.3971   -9.3481    0.0000 C   0  0  0  0  0  0  0  0  0  0  0  0
   -2.3971   -7.8481    0.0000 C   0  0  0  0  0  0  0  0  0  0  0  0
   -3.6962   -7.0981    0.0000 C   0  0  0  0  0  0  0  0  0  0  0  0
   -1.0981   -7.0981    0.0000 C   0  0  0  0  0  0  0  0  0  0  0  0
   -1.0981   -5.5981    0.0000 C   0  0  0  0  0  0  0  0  0  0  0  0
    0.2010   -4.8481    0.0000 C   0  0  0  0  0  0  0  0  0  0  0  0
    0.2010   -3.3481    0.0000 O   0  0  0  0  0  0  0  0  0  0  0  0
    1.5000   -2.5981    0.0000 Si  0  0  0  0  0  4  0  0  0  0  0  0
    0.7500   -1.2990    0.0000 C   0  0  0  0  0  0  0  0  0  0  0  0
    1.5000    0.0000    0.0000 C   0  0  0  0  0  0  0  0  0  0  0  0
    0.7500    1.2990    0.0000 C   0  0  0  0  0  0  0  0  0  0  0  0
   -0.7500    1.2990    0.0000 C   0  0  0  0  0  0  0  0  0  0  0  0
   -1.5000    0.0000    0.0000 C   0  0  0  0  0  0  0  0  0  0  0  0
   -0.7500   -1.2990    0.0000 C   0  0  0  0  0  0  0  0  0  0  0  0
    2.7990   -1.8481    0.0000 C   0  0  0  0  0  0  0  0  0  0  0  0
    4.0981   -2.5981    0.0000 C   0  0  0  0  0  0  0  0  0  0  0  0
    5.3971   -1.8481    0.0000 C   0  0  0  0  0  0  0  0  0  0  0  0
    5.3971   -0.3481    0.0000 C   0  0  0  0  0  0  0  0  0  0  0  0
    4.0981    0.4019    0.0000 C   0  0  0  0  0  0  0  0  0  0  0  0
    2.7990   -0.3481    0.0000 C   0  0  0  0  0  0  0  0  0  0  0  0
    2.2500   -3.8971    0.0000 C   0  0  0  0  0  0  0  0  0  0  0  0
    3.5490   -3.1471    0.0000 C   0  0  0  0  0  0  0  0  0  0  0  0
    0.9510   -4.6471    0.0000 C   0  0  0  0  0  0  0  0  0  0  0  0
    3.0000   -5.1962    0.0000 C   0  0  0  0  0  0  0  0  0  0  0  0
   -4.9952  -13.8481    0.0000 C   0  0  0  0  0  0  0  0  0  0  0  0
   -6.2942  -14.5981    0.0000 C   0  0  0  0  0  0  0  0  0  0  0  0
   -6.2942  -16.0981    0.0000 C   0  0  0  0  0  0  0  0  0  0  0  0
   -7.5933  -16.8481    0.0000 O   0  0  0  0  0  0  0  0  0  0  0  0
  1  2  1  0
  2  3  2  0
  3  4  1  0
  4  5  1  0
  5  6  1  0
  6  7  1  0
  6  8  2  0
  8  9  1  0
  9 10  1  0
 10 11  1  0
 11 12  1  0
 12 13  1  0
 13 14  2  0
 14 15  1  0
 15 16  2  0
 16 17  1  0
 17 18  2  0
 12 19  1  0
 19 20  2  0
 20 21  1  0
 21 22  2  0
 22 23  1  0
 23 24  2  0
 12 25  1  0
 25 26  1  0
 25 27  1  0
 25 28  1  0
  2 29  1  0
 29 30  1  0
 30 31  1  0
 31 32  2  0
 18 13  1  0
 24 19  1  0
M  END
$$$$
15
     RDKit          2D

 23 24  0  0  0  0  0  0  0  0999 V2000
   -2.9991   -9.9569    0.0000 C   0  0  0  0  0  0  0  0  0  0  0  0
   -3.3109   -8.4896    0.0000 C   0  0  0  0  0  0  0  0  0  0  0  0
   -2.1962   -7.4859    0.0000 O   0  0  0  0  0  0  0  0  0  0  0  0
   -2.5081   -6.0187    0.0000 P   0  0  0  0  0  0  0  0  0  0  0  0
   -3.9753   -6.3306    0.0000 O   0  0  0  0  0  0  0  0  0  0  0  0
   -1.0409   -5.7068    0.0000 C   0  0  0  0  0  0  0  0  0  0  0  0
   -0.5773   -4.2803    0.0000 C   0  0  0  0  0  0  0  0  0  0  0  0
   -1.5810   -3.1655    0.0000 O   0  0  0  0  0  0  0  0  0  0  0  0
    0.8899   -3.9684    0.0000 N   0  0  0  0  0  0  0  0  0  0  0  0
    2.0046   -4.9721    0.0000 C   0  0  0  0  0  0  0  0  0  0  0  0
    1.8478   -6.4639    0.0000 O   0  0  0  0  0  0  0  0  0  0  0  0
    3.3037   -4.2221    0.0000 O   0  0  0  0  0  0  0  0  0  0  0  0
    2.9918   -2.7549    0.0000 C   0  0  0  0  0  0  0  0  0  0  0  0
    1.5000   -2.5981    0.0000 C   0  0  0  0  0  0  0  0  0  0  0  0
    0.7500   -1.2990    0.0000 C   0  0  0  0  0  0  0  0  0  0  0  0
    1.5000    0.0000    0.0000 C   0  0  0  0  0  0  0  0  0  0  0  0
    0.7500    1.2990    0.0000 C   0  0  0  0  0  0  0  0  0  0  0  0
   -0.7500    1.2990    0.0000 C   0  0  0  0  0  0  0  0  0  0  0  0
   -1.5000    0.0000    0.0000 C   0  0  0  0  0  0  0  0  0  0  0  0
   -0.7500   -1.2990    0.0000 C   0  0  0  0  0  0  0  0  0  0  0  0
   -2.8199   -4.5515    0.0000 O   0  0  0  0  0  0  0  0  0  0  0  0
   -4.2465   -4.0880    0.0000 C   0  0  0  0  0  0  0  0  0  0  0  0
   -4.5584   -2.6207    0.0000 C   0  0  0  0  0  0  0  0  0  0  0  0
  1  2  1  0
  2  3  1  0
  3  4  1  0
  4  5  2  0
  4  6  1  0
  6  7  1  0
  7  8  2  0
  7  9  1  0
  9 10  1  0
 10 11  2  0
 10 12  1  0
 12 13  1  0
 13 14  1  0
 14 15  1  6
 15 16  2  0
 16 17  1  0
 17 18  2  0
 18 19  1  0
 19 20  2  0
  4 21  1  0
 21 22  1  0
 22 23  1  0
 14  9  1  0
 20 15  1  0
M  END
$$$$
16
     RDKit          2D

 46 49  0  0  0  0  0  0  0  0999 V2000
   -3.6962   -7.0981    0.0000 C   0  0  0  0  0  0  0  0  0  0  0  0
   -2.3971   -7.8481    0.0000 C   0  0  0  0  0  0  0  0  0  0  0  0
   -1.0981   -7.0981    0.0000 C   0  0  0  0  0  0  0  0  0  0  0  0
   -1.0981   -5.5981    0.0000 C   0  0  0  0  0  0  0  0  0  0  0  0
    0.2010   -4.8481    0.0000 C   0  0  0  0  0  0  0  0  0  0  0  0
    0.2010   -3.3481    0.0000 O   0  0  0  0  0  0  0  0  0  0  0  0
    1.5000   -2.5981    0.0000 Si  0  0  0  0  0  4  0  0  0  0  0  0
    0.7500   -1.2990    0.0000 C   0  0  0  0  0  0  0  0  0  0  0  0
    1.5000    0.0000    0.0000 C   0  0  0  0  0  0  0  0  0  0  0  0
    0.7500    1.2990    0.0000 C   0  0  0  0  0  0  0  0  0  0  0  0
   -0.7500    1.2990    0.0000 C   0  0  0  0  0  0  0  0  0  0  0  0
   -1.5000    0.0000    0.0000 C   0  0  0  0  0  0  0  0  0  0  0  0
   -0.7500   -1.2990    0.0000 C   0  0  0  0  0  0  0  0  0  0  0  0
    2.7990   -1.8481    0.0000 C   0  0  0  0  0  0  0  0  0  0  0  0
    4.0981   -2.5981    0.0000 C   0  0  0  0  0  0  0  0  0  0  0  0
    5.3971   -1.8481    0.0000 C   0  0  0  0  0  0  0  0  0  0  0  0
    5.3971   -0.3481    0.0000 C   0  0  0  0  0  0  0  0  0  0  0  0
    4.0981    0.4019    0.0000 C   0  0  0  0  0  0  0  0  0  0  0  0
    2.7990   -0.3481    0.0000 C   0  0  0  0  0  0  0  0  0  0  0  0
    2.2500   -3.8971    0.0000 C   0  0  0  0  0  0  0  0  0  0  0  0
    3.5490   -3.1471    0.0000 C   0  0  0  0  0  0  0  0  0  0  0  0
    0.9510   -4.6471    0.0000 C   0  0  0  0  0  0  0  0  0  0  0  0
    3.0000   -5.1962    0.0000 C   0  0  0  0  0  0  0  0  0  0  0  0
   -2.3971   -9.3481    0.0000 C   0  0  0  0  0  0  0  0  0  0  0  0
   -3.6962  -10.0981    0.0000 C   0  0  0  0  0  0  0  0  0  0  0  0
   -3.6962  -11.5981    0.0000 C   0  0  0  0  0  0  0  0  0  0  0  0
   -4.9952  -12.3481    0.0000 C   0  0  0  0  0  0  0  0  0  0  0  0
   -6.2942  -11.5981    0.0000 C   0  0  0  0  0  0  0  0  0  0  0  0
   -4.9952  -13.8481    0.0000 C   0  0  0  0  0  0  0  0  0  0  0  0
   -6.2942  -14.5981    0.0000 C   0  0  0  0  0  0  0  0  0  0  0  0
   -6.2942  -16.0981    0.0000 C   0  0  0  0  0  0  0  0  0  0  0  0
   -7.5933  -16.8481    0.0000 C   0  0  0  0  0  0  0  0  0  0  0  0
   -7.5933  -18.3481    0.0000 C   0  0  0  0  0  0  0  0  0  0  0  0
   -6.2942  -19.0981    0.0000 O   0  0  0  0  0  0  0  0  0  0  0  0
   -8.8923  -19.0981    0.0000 N   0  0  0  0  0  0  0  0  0  0  0  0
   -9.0491  -20.5899    0.0000 C   0  0  0  0  0  0  0  0  0  0  0  0
   -7.9344  -21.5936    0.0000 O   0  0  0  0  0  0  0  0  0  0  0  0
  -10.5163  -20.9017    0.0000 O   0  0  0  0  0  0  0  0  0  0  0  0
  -11.2663  -19.6027    0.0000 C   0  0  0  0  0  0  0  0  0  0  0  0
  -10.2626  -18.4880    0.0000 C   0  0  0  0  0  0  0  0  0  0  0  0
  -10.5745  -17.0207    0.0000 C   0  0  0  0  0  0  0  0  0  0  0  0
   -9.4598  -16.0171    0.0000 C   0  0  0  0  0  0  0  0  0  0  0  0
   -9.7716  -14.5498    0.0000 C   0  0  0  0  0  0  0  0  0  0  0  0
  -11.1982  -14.0863    0.0000 C   0  0  0  0  0  0  0  0  0  0  0  0
  -12.3129  -15.0900    0.0000 C   0  0  0  0  0  0  0  0  0  0  0  0
  -12.0011  -16.5572    0.0000 C   0  0  0  0  0  0  0  0  0  0  0  0
  1  2  1  0
  2  3  2  0
  3  4  1  0
  4  5  1  0
  5  6  1  0
  6  7  1  0
  7  8  1  0
  8  9  2  0
  9 10  1  0
 10 11  2  0
 11 12  1  0
 12 13  2  0
  7 14  1  0
 14 15  2  0
 15 16  1  0
 16 17  2  0
 17 18  1  0
 18 19  2  0
  7 20  1  0
 20 21  1  0
 20 22  1  0
 20 23  1  0
  2 24  1  0
 24 25  1  0
 25 26  1  0
 26 27  2  0
 27 28  1  0
 27 29  1  0
 29 30  1  0
 30 31  1  0
 31 32  2  0
 32 33  1  0
 33 34  2  0
 33 35  1  0
 35 36  1  0
 36 37  2  0
 36 38  1  0
 38 39  1  0
 39 40  1  0
 40 41  1  1
 41 42  2  0
 42 43  1  0
 43 44  2  0
 44 45  1  0
 45 46  2  0
 13  8  1  0
 19 14  1  0
 40 35  1  0
 46 41  1  0
M  END
$$$$
17
     RDKit          2D

 49 52  0  0  0  0  0  0  0  0999 V2000
   -3.6962  -16.0981    0.0000 C   0  0  0  0  0  0  0  0  0  0  0  0
   -4.9952  -16.8481    0.0000 C   0  0  0  0  0  0  0  0  0  0  0  0
   -4.9952  -18.3481    0.0000 C   0  0  0  0  0  0  0  0  0  0  0  0
   -6.2942  -16.0981    0.0000 C   0  0  0  0  0  0  0  0  0  0  0  0
   -6.2942  -14.5981    0.0000 C   0  0  0  0  0  0  0  0  0  0  0  0
   -4.9952  -13.8481    0.0000 C   0  0  0  0  0  0  0  0  0  0  0  0
   -4.9952  -12.3481    0.0000 C   0  0  0  0  0  0  0  0  0  0  0  0
   -6.2942  -11.5981    0.0000 C   0  0  0  0  0  0  0  0  0  0  0  0
   -3.6962  -11.5981    0.0000 C   0  0  0  0  0  0  0  0  0  0  0  0
   -3.6962  -10.0981    0.0000 C   0  0  0  0  0  0  0  0  0  0  0  0
   -2.3971   -9.3481    0.0000 C   0  0  0  0  0  0  0  0  0  0  0  0
   -2.3971   -7.8481    0.0000 C   0  0  0  0  0  0  0  0  0  0  0  0
   -3.6962   -7.0981    0.0000 C   0  0  0  0  0  0  0  0  0  0  0  0
   -1.0981   -7.0981    0.0000 C   0  0  0  0  0  0  0  0  0  0  0  0
   -1.0981   -5.5981    0.0000 C   0  0  0  0  0  0  0  0  0  0  0  0
    0.2010   -4.8481    0.0000 C   0  0  0  0  0  0  0  0  0  0  0  0
    0.2010   -3.3481    0.0000 O   0  0  0  0  0  0  0  0  0  0  0  0
    1.5000   -2.5981    0.0000 Si  0  0  0  0  0  4  0  0  0  0  0  0
    0.7500   -1.2990    0.0000 C   0  0  0  0  0  0  0  0  0  0  0  0
    1.5000    0.0000    0.0000 C   0  0  0  0  0  0  0  0  0  0  0  0
    0.7500    1.2990    0.0000 C   0  0  0  0  0  0  0  0  0  0  0  0
   -0.7500    1.2990    0.0000 C   0  0  0  0  0  0  0  0  0  0  0  0
   -1.5000    0.0000    0.0000 C   0  0  0  0  0  0  0  0  0  0  0  0
   -0.7500   -1.2990    0.0000 C   0  0  0  0  0  0  0  0  0  0  0  0
    2.7990   -1.8481    0.0000 C   0  0  0  0  0  0  0  0  0  0  0  0
    4.0981   -2.5981    0.0000 C   0  0  0  0  0  0  0  0  0  0  0  0
    5.3971   -1.8481    0.0000 C   0  0  0  0  0  0  0  0  0  0  0  0
    5.3971   -0.3481    0.0000 C   0  0  0  0  0  0  0  0  0  0  0  0
    4.0981    0.4019    0.0000 C   0  0  0  0  0  0  0  0  0  0  0  0
    2.7990   -0.3481    0.0000 C   0  0  0  0  0  0  0  0  0  0  0  0
    2.2500   -3.8971    0.0000 C   0  0  0  0  0  0  0  0  0  0  0  0
    3.5490   -3.1471    0.0000 C   0  0  0  0  0  0  0  0  0  0  0  0
    0.9510   -4.6471    0.0000 C   0  0  0  0  0  0  0  0  0  0  0  0
    3.0000   -5.1962    0.0000 C   0  0  0  0  0  0  0  0  0  0  0  0
   -7.5933  -16.8481    0.0000 C   0  0  0  0  0  0  0  0  0  0  0  0
   -7.5933  -18.3481    0.0000 C   0  0  0  0  0  0  0  0  0  0  0  0
   -6.2942  -19.0981    0.0000 O   0  0  0  0  0  0  0  0  0  0  0  0
   -8.8923  -19.0981    0.0000 N   0  0  0  0  0  0  0  0  0  0  0  0
   -9.0491  -20.5899    0.0000 C   0  0  0  0  0  0  0  0  0  0  0  0
   -7.9344  -21.5936    0.0000 O   0  0  0  0  0  0  0  0  0  0  0  0
  -10.5163  -20.9017    0.0000 O   0  0  0  0  0  0  0  0  0  0  0  0
  -11.2663  -19.6027    0.0000 C   0  0  0  0  0  0  0  0  0  0  0  0
  -10.2626  -18.4880    0.0000 C   0  0  0  0  0  0  0  0  0  0  0  0
  -10.5745  -17.0207    0.0000 C   0  0  0  0  0  0  0  0  0  0  0  0
   -9.4598  -16.0171    0.0000 C   0  0  0  0  0  0  0  0  0  0  0  0
   -9.7716  -14.5498    0.0000 C   0  0  0  0  0  0  0  0  0  0  0  0
  -11.1982  -14.0863    0.0000 C   0  0  0  0  0  0  0  0  0  0  0  0
  -12.3129  -15.0900    0.0000 C   0  0  0  0  0  0  0  0  0  0  0  0
  -12.0011  -16.5572    0.0000 C   0  0  0  0  0  0  0  0  0  0  0  0
  1  2  2  0
  2  3  1  0
  2  4  1  0
  4  5  1  6
  5  6  1  0
  6  7  1  0
  7  8  1  0
  7  9  2  0
  9 10  1  0
 10 11  1  0
 11 12  1  0
 12 13  1  0
 12 14  2  0
 14 15  1  0
 15 16  1  0
 16 17  1  0
 17 18  1  0
 18 19  1  0
 19 20  2  0
 20 21  1  0
 21 22  2  0
 22 23  1  0
 23 24  2  0
 18 25  1  0
 25 26  2  0
 26 27  1  0
 27 28  2  0
 28 29  1  0
 29 30  2  0
 18 31  1  0
 31 32  1  0
 31 33  1  0
 31 34  1  0
  4 35  1  0
 35 36  1  0
 36 37  2  0
 36 38  1  0
 38 39  1  0
 39 40  2  0
 39 41  1  0
 41 42  1  0
 42 43  1  0
 43 44  1  1
 44 45  2  0
 45 46  1  0
 46 47  2  0
 47 48  1  0
 48 49  2  0
 24 19  1  0
 30 25  1  0
 43 38  1  0
 49 44  1  0
M  END
$$$$
SI-1
     RDKit          2D

 37 38  0  0  0  0  0  0  0  0999 V2000
   -3.6962  -16.0981    0.0000 C   0  0  0  0  0  0  0  0  0  0  0  0
   -4.9952  -16.8481    0.0000 C   0  0  0  0  0  0  0  0  0  0  0  0
   -4.9952  -18.3481    0.0000 C   0  0  0  0  0  0  0  0  0  0  0  0
   -6.2942  -16.0981    0.0000 C   0  0  0  0  0  0  0  0  0  0  0  0
   -7.5933  -16.8481    0.0000 C   0  0  0  0  0  0  0  0  0  0  0  0
   -7.5933  -18.3481    0.0000 C   0  0  0  0  0  0  0  0  0  0  0  0
   -8.8923  -19.0981    0.0000 O   0  0  0  0  0  0  0  0  0  0  0  0
   -6.2942  -14.5981    0.0000 C   0  0  0  0  0  0  0  0  0  0  0  0
   -4.9952  -13.8481    0.0000 C   0  0  0  0  0  0  0  0  0  0  0  0
   -4.9952  -12.3481    0.0000 C   0  0  0  0  0  0  0  0  0  0  0  0
   -6.2942  -11.5981    0.0000 C   0  0  0  0  0  0  0  0  0  0  0  0
   -3.6962  -11.5981    0.0000 C   0  0  0  0  0  0  0  0  0  0  0  0
   -3.6962  -10.0981    0.0000 C   0  0  0  0  0  0  0  0  0  0  0  0
   -2.3971   -9.3481    0.0000 C   0  0  0  0  0  0  0  0  0  0  0  0
   -2.3971   -7.8481    0.0000 C   0  0  0  0  0  0  0  0  0  0  0  0
   -3.6962   -7.0981    0.0000 C   0  0  0  0  0  0  0  0  0  0  0  0
   -1.0981   -7.0981    0.0000 C   0  0  0  0  0  0  0  0  0  0  0  0
   -1.0981   -5.5981    0.0000 C   0  0  0  0  0  0  0  0  0  0  0  0
    0.2010   -4.8481    0.0000 C   0  0  0  0  0  0  0  0  0  0  0  0
    0.2010   -3.3481    0.0000 O   0  0  0  0  0  0  0  0  0  0  0  0
    1.5000   -2.5981    0.0000 Si  0  0  0  0  0  4  0  0  0  0  0  0
    0.7500   -1.2990    0.0000 C   0  0  0  0  0  0  0  0  0  0  0  0
    1.5000    0.0000    0.0000 C   0  0  0  0  0  0  0  0  0  0  0  0
    0.7500    1.2990    0.0000 C   0  0  0  0  0  0  0  0  0  0  0  0
   -0.7500    1.2990    0.0000 C   0  0  0  0  0  0  0  0  0  0  0  0
   -1.5000    0.0000    0.0000 C   0  0  0  0  0  0  0  0  0  0  0  0
   -0.7500   -1.2990    0.0000 C   0  0  0  0  0  0  0  0  0  0  0  0
    2.7990   -1.8481    0.0000 C   0  0  0  0  0  0  0  0  0  0  0  0
    4.0981   -2.5981    0.0000 C   0  0  0  0  0  0  0  0  0  0  0  0
    5.3971   -1.8481    0.0000 C   0  0  0  0  0  0  0  0  0  0  0  0
    5.3971   -0.3481    0.0000 C   0  0  0  0  0  0  0  0  0  0  0  0
    4.0981    0.4019    0.0000 C   0  0  0  0  0  0  0  0  0  0  0  0
    2.7990   -0.3481    0.0000 C   0  0  0  0  0  0  0  0  0  0  0  0
    2.2500   -3.8971    0.0000 C   0  0  0  0  0  0  0  0  0  0  0  0
    3.5490   -3.1471    0.0000 C   0  0  0  0  0  0  0  0  0  0  0  0
    0.9510   -4.6471    0.0000 C   0  0  0  0  0  0  0  0  0  0  0  0
    3.0000   -5.1962    0.0000 C   0  0  0  0  0  0  0  0  0  0  0  0
  1  2  2  0
  2  3  1  0
  2  4  1  0
  4  5  1  6
  5  6  1  0
  6  7  1  0
  4  8  1  0
  8  9  1  0
  9 10  1  0
 10 11  1  0
 10 12  2  0
 12 13  1  0
 13 14  1  0
 14 15  1  0
 15 16  1  0
 15 17  2  0
 17 18  1  0
 18 19  1  0
 19 20  1  0
 20 21  1  0
 21 22  1  0
 22 23  2  0
 23 24  1  0
 24 25  2  0
 25 26  1  0
 26 27  2  0
 21 28  1  0
 28 29  2  0
 29 30  1  0
 30 31  2  0
 31 32  1  0
 32 33  2  0
 21 34  1  0
 34 35  1  0
 34 36  1  0
 34 37  1  0
 27 22  1  0
 33 28  1  0
M  END
$$$$
18
     RDKit          2D

 40 41  0  0  0  0  0  0  0  0999 V2000
   -3.6962  -16.0981    0.0000 C   0  0  0  0  0  0  0  0  0  0  0  0
   -4.9952  -16.8481    0.0000 C   0  0  0  0  0  0  0  0  0  0  0  0
   -4.9952  -18.3481    0.0000 C   0  0  0  0  0  0  0  0  0  0  0  0
   -6.2942  -16.0981    0.0000 C   0  0  0  0  0  0  0  0  0  0  0  0
   -7.5933  -16.8481    0.0000 C   0  0  0  0  0  0  0  0  0  0  0  0
   -7.5933  -18.3481    0.0000 C   0  0  0  0  0  0  0  0  0  0  0  0
   -8.8923  -19.0981    0.0000 O   0  0  0  0  0  0  0  0  0  0  0  0
   -8.8923  -20.5981    0.0000 C   0  0  0  0  0  0  0  0  0  0  0  0
  -10.1913  -21.3481    0.0000 O   0  0  0  0  0  0  0  0  0  0  0  0
  -10.1913  -22.8481    0.0000 C   0  0  0  0  0  0  0  0  0  0  0  0
   -6.2942  -14.5981    0.0000 C   0  0  0  0  0  0  0  0  0  0  0  0
   -4.9952  -13.8481    0.0000 C   0  0  0  0  0  0  0  0  0  0  0  0
   -4.9952  -12.3481    0.0000 C   0  0  0  0  0  0  0  0  0  0  0  0
   -6.2942  -11.5981    0.0000 C   0  0  0  0  0  0  0  0  0  0  0  0
   -3.6962  -11.5981    0.0000 C   0  0  0  0  0  0  0  0  0  0  0  0
   -3.6962  -10.0981    0.0000 C   0  0  0  0  0  0  0  0  0  0  0  0
   -2.3971   -9.3481    0.0000 C   0  0  0  0  0  0  0  0  0  0  0  0
   -2.3971   -7.8481    0.0000 C   0  0  0  0  0  0  0  0  0  0  0  0
   -3.6962   -7.0981    0.0000 C   0  0  0  0  0  0  0  0  0  0  0  0
   -1.0981   -7.0981    0.0000 C   0  0  0  0  0  0  0  0  0  0  0  0
   -1.0981   -5.5981    0.0000 C   0  0  0  0  0  0  0  0  0  0  0  0
    0.2010   -4.8481    0.0000 C   0  0  0  0  0  0  0  0  0  0  0  0
    0.2010   -3.3481    0.0000 O   0  0  0  0  0  0  0  0  0  0  0  0
    1.5000   -2.5981    0.0000 Si  0  0  0  0  0  4  0  0  0  0  0  0
    0.7500   -1.2990    0.0000 C   0  0  0  0  0  0  0  0  0  0  0  0
    1.5000    0.0000    0.0000 C   0  0  0  0  0  0  0  0  0  0  0  0
    0.7500    1.2990    0.0000 C   0  0  0  0  0  0  0  0  0  0  0  0
   -0.7500    1.2990    0.0000 C   0  0  0  0  0  0  0  0  0  0  0  0
   -1.5000    0.0000    0.0000 C   0  0  0  0  0  0  0  0  0  0  0  0
   -0.7500   -1.2990    0.0000 C   0  0  0  0  0  0  0  0  0  0  0  0
    2.7990   -1.8481    0.0000 C   0  0  0  0  0  0  0  0  0  0  0  0
    4.0981   -2.5981    0.0000 C   0  0  0  0  0  0  0  0  0  0  0  0
    5.3971   -1.8481    0.0000 C   0  0  0  0  0  0  0  0  0  0  0  0
    5.3971   -0.3481    0.0000 C   0  0  0  0  0  0  0  0  0  0  0  0
    4.0981    0.4019    0.0000 C   0  0  0  0  0  0  0  0  0  0  0  0
    2.7990   -0.3481    0.0000 C   0  0  0  0  0  0  0  0  0  0  0  0
    2.2500   -3.8971    0.0000 C   0  0  0  0  0  0  0  0  0  0  0  0
    3.5490   -3.1471    0.0000 C   0  0  0  0  0  0  0  0  0  0  0  0
    0.9510   -4.6471    0.0000 C   0  0  0  0  0  0  0  0  0  0  0  0
    3.0000   -5.1962    0.0000 C   0  0  0  0  0  0  0  0  0  0  0  0
  1  2  2  0
  2  3  1  0
  2  4  1  0
  4  5  1  6
  5  6  1  0
  6  7  1  0
  7  8  1  0
  8  9  1  0
  9 10  1  0
  4 11  1  0
 11 12  1  0
 12 13  1  0
 13 14  1  0
 13 15  2  0
 15 16  1  0
 16 17  1  0
 17 18  1  0
 18 19  1  0
 18 20  2  0
 20 21  1  0
 21 22  1  0
 22 23  1  0
 23 24  1  0
 24 25  1  0
 25 26  2  0
 26 27  1  0
 27 28  2  0
 28 29  1  0
 29 30  2  0
 24 31  1  0
 31 32  2  0
 32 33  1  0
 33 34  2  0
 34 35  1  0
 35 36  2  0
 24 37  1  0
 37 38  1  0
 37 39  1  0
 37 40  1  0
 30 25  1  0
 36 31  1  0
M  END
$$$$
SI-2
     RDKit          2D

 23 22  0  0  0  0  0  0  0  0999 V2000
   -0.7500   -3.8971    0.0000 C   0  0  0  0  0  0  0  0  0  0  0  0
   -2.2500   -3.8971    0.0000 C   0  0  0  0  0  0  0  0  0  0  0  0
   -3.0000   -5.1962    0.0000 C   0  0  0  0  0  0  0  0  0  0  0  0
   -3.0000   -2.5981    0.0000 C   0  0  0  0  0  0  0  0  0  0  0  0
   -4.5000   -2.5981    0.0000 C   0  0  0  0  0  0  0  0  0  0  0  0
   -5.2500   -3.8971    0.0000 C   0  0  0  0  0  0  0  0  0  0  0  0
   -6.7500   -3.8971    0.0000 O   0  0  0  0  0  0  0  0  0  0  0  0
   -7.5000   -5.1962    0.0000 C   0  0  0  0  0  0  0  0  0  0  0  0
   -9.0000   -5.1962    0.0000 O   0  0  0  0  0  0  0  0  0  0  0  0
   -9.7500   -6.4952    0.0000 C   0  0  0  0  0  0  0  0  0  0  0  0
   -2.2500   -1.2990    0.0000 C   0  0  0  0  0  0  0  0  0  0  0  0
   -0.7500   -1.2990    0.0000 C   0  0  0  0  0  0  0  0  0  0  0  0
    0.0000    0.0000    0.0000 C   0  0  0  0  0  0  0  0  0  0  0  0
   -0.7500    1.2990    0.0000 C   0  0  0  0  0  0  0  0  0  0  0  0
    1.5000    0.0000    0.0000 C   0  0  0  0  0  0  0  0  0  0  0  0
    2.2500    1.2990    0.0000 C   0  0  0  0  0  0  0  0  0  0  0  0
    3.7500    1.2990    0.0000 C   0  0  0  0  0  0  0  0  0  0  0  0
    4.5000    2.5981    0.0000 C   0  0  0  0  0  0  0  0  0  0  0  0
    3.7500    3.8971    0.0000 C   0  0  0  0  0  0  0  0  0  0  0  0
    6.0000    2.5981    0.0000 C   0  0  0  0  0  0  0  0  0  0  0  0
    6.7500    3.8971    0.0000 C   0  0  0  0  0  0  0  0  0  0  0  0
    8.2500    3.8971    0.0000 C   0  0  0  0  0  0  0  0  0  0  0  0
    9.0000    5.1962    0.0000 O   0  0  0  0  0  0  0  0  0  0  0  0
  1  2  2  0
  2  3  1  0
  2  4  1  0
  4  5  1  6
  5  6  1  0
  6  7  1  0
  7  8  1  0
  8  9  1  0
  9 10  1  0
  4 11  1  0
 11 12  1  0
 12 13  1  0
 13 14  1  0
 13 15  2  0
 15 16  1  0
 16 17  1  0
 17 18  1  0
 18 19  1  0
 18 20  2  0
 20 21  1  0
 21 22  1  0
 22 23  1  0
M  END
$$$$
19
     RDKit          2D

 23 22  0  0  0  0  0  0  0  0999 V2000
   -0.7500   -3.8971    0.0000 C   0  0  0  0  0  0  0  0  0  0  0  0
   -2.2500   -3.8971    0.0000 C   0  0  0  0  0  0  0  0  0  0  0  0
   -3.0000   -5.1962    0.0000 C   0  0  0  0  0  0  0  0  0  0  0  0
   -3.0000   -2.5981    0.0000 C   0  0  0  0  0  0  0  0  0  0  0  0
   -4.5000   -2.5981    0.0000 C   0  0  0  0  0  0  0  0  0  0  0  0
   -5.2500   -3.8971    0.0000 C   0  0  0  0  0  0  0  0  0  0  0  0
   -6.7500   -3.8971    0.0000 O   0  0  0  0  0  0  0  0  0  0  0  0
   -7.5000   -5.1962    0.0000 C   0  0  0  0  0  0  0  0  0  0  0  0
   -9.0000   -5.1962    0.0000 O   0  0  0  0  0  0  0  0  0  0  0  0
   -9.7500   -6.4952    0.0000 C   0  0  0  0  0  0  0  0  0  0  0  0
   -2.2500   -1.2990    0.0000 C   0  0  0  0  0  0  0  0  0  0  0  0
   -0.7500   -1.2990    0.0000 C   0  0  0  0  0  0  0  0  0  0  0  0
    0.0000    0.0000    0.0000 C   0  0  0  0  0  0  0  0  0  0  0  0
   -0.7500    1.2990    0.0000 C   0  0  0  0  0  0  0  0  0  0  0  0
    1.5000    0.0000    0.0000 C   0  0  0  0  0  0  0  0  0  0  0  0
    2.2500    1.2990    0.0000 C   0  0  0  0  0  0  0  0  0  0  0  0
    3.7500    1.2990    0.0000 C   0  0  0  0  0  0  0  0  0  0  0  0
    4.5000    2.5981    0.0000 C   0  0  0  0  0  0  0  0  0  0  0  0
    3.7500    3.8971    0.0000 C   0  0  0  0  0  0  0  0  0  0  0  0
    6.0000    2.5981    0.0000 C   0  0  0  0  0  0  0  0  0  0  0  0
    6.7500    3.8971    0.0000 C   0  0  0  0  0  0  0  0  0  0  0  0
    8.2500    3.8971    0.0000 C   0  0  0  0  0  0  0  0  0  0  0  0
    9.0000    5.1962    0.0000 I   0  0  0  0  0  0  0  0  0  0  0  0
  1  2  2  0
  2  3  1  0
  2  4  1  0
  4  5  1  6
  5  6  1  0
  6  7  1  0
  7  8  1  0
  8  9  1  0
  9 10  1  0
  4 11  1  0
 11 12  1  0
 12 13  1  0
 13 14  1  0
 13 15  2  0
 15 16  1  0
 16 17  1  0
 17 18  1  0
 18 19  1  0
 18 20  2  0
 20 21  1  0
 21 22  1  0
 22 23  1  0
M  END
$$$$
21
     RDKit          2D

 36 35  0  0  0  0  0  0  0  0999 V2000
   -0.7500   -3.8971    0.0000 C   0  0  0  0  0  0  0  0  0  0  0  0
   -2.2500   -3.8971    0.0000 C   0  0  0  0  0  0  0  0  0  0  0  0
   -3.0000   -5.1962    0.0000 C   0  0  0  0  0  0  0  0  0  0  0  0
   -3.0000   -2.5981    0.0000 C   0  0  0  0  0  0  0  0  0  0  0  0
   -4.5000   -2.5981    0.0000 C   0  0  0  0  0  0  0  0  0  0  0  0
   -5.2500   -3.8971    0.0000 C   0  0  0  0  0  0  0  0  0  0  0  0
   -6.7500   -3.8971    0.0000 O   0  0  0  0  0  0  0  0  0  0  0  0
   -7.5000   -5.1962    0.0000 C   0  0  0  0  0  0  0  0  0  0  0  0
   -9.0000   -5.1962    0.0000 O   0  0  0  0  0  0  0  0  0  0  0  0
   -9.7500   -6.4952    0.0000 C   0  0  0  0  0  0  0  0  0  0  0  0
   -2.2500   -1.2990    0.0000 C   0  0  0  0  0  0  0  0  0  0  0  0
   -0.7500   -1.2990    0.0000 C   0  0  0  0  0  0  0  0  0  0  0  0
    0.0000    0.0000    0.0000 C   0  0  0  0  0  0  0  0  0  0  0  0
   -0.7500    1.2990    0.0000 C   0  0  0  0  0  0  0  0  0  0  0  0
    1.5000    0.0000    0.0000 C   0  0  0  0  0  0  0  0  0  0  0  0
    2.2500    1.2990    0.0000 C   0  0  0  0  0  0  0  0  0  0  0  0
    3.7500    1.2990    0.0000 C   0  0  0  0  0  0  0  0  0  0  0  0
    4.5000    2.5981    0.0000 C   0  0  0  0  0  0  0  0  0  0  0  0
    3.7500    3.8971    0.0000 C   0  0  0  0  0  0  0  0  0  0  0  0
    6.0000    2.5981    0.0000 C   0  0  0  0  0  0  0  0  0  0  0  0
    6.7500    3.8971    0.0000 C   0  0  0  0  0  0  0  0  0  0  0  0
    8.2500    3.8971    0.0000 C   0  0  0  0  0  0  0  0  0  0  0  0
    9.0000    5.1962    0.0000 C   0  0  0  0  0  0  0  0  0  0  0  0
   10.5000    5.1962    0.0000 C   0  0  0  0  0  0  0  0  0  0  0  0
   11.2500    3.8971    0.0000 O   0  0  0  0  0  0  0  0  0  0  0  0
   11.2500    6.4952    0.0000 O   0  0  0  0  0  0  0  0  0  0  0  0
   12.7500    6.4952    0.0000 C   0  0  0  0  0  0  0  0  0  0  0  0
   13.5000    7.7942    0.0000 C   0  0  0  0  0  0  0  0  0  0  0  0
    8.2500    6.4952    0.0000 P   0  0  0  0  0  0  0  0  0  0  0  0
    7.5000    7.7942    0.0000 O   0  0  0  0  0  0  0  0  0  0  0  0
    9.5490    7.2452    0.0000 O   0  0  0  0  0  0  0  0  0  0  0  0
    9.5490    8.7452    0.0000 C   0  0  0  0  0  0  0  0  0  0  0  0
   10.8481    9.4952    0.0000 C   0  0  0  0  0  0  0  0  0  0  0  0
    6.9510    5.7452    0.0000 O   0  0  0  0  0  0  0  0  0  0  0  0
    5.6519    6.4952    0.0000 C   0  0  0  0  0  0  0  0  0  0  0  0
    4.3529    5.7452    0.0000 C   0  0  0  0  0  0  0  0  0  0  0  0
  1  2  2  0
  2  3  1  0
  2  4  1  0
  4  5  1  6
  5  6  1  0
  6  7  1  0
  7  8  1  0
  8  9  1  0
  9 10  1  0
  4 11  1  0
 11 12  1  0
 12 13  1  0
 13 14  1  0
 13 15  2  0
 15 16  1  0
 16 17  1  0
 17 18  1  0
 18 19  1  0
 18 20  2  0
 20 21  1  0
 21 22  1  0
 22 23  1  0
 23 24  1  0
 24 25  2  0
 24 26  1  0
 26 27  1  0
 27 28  1  0
 23 29  1  0
 29 30  2  0
 29 31  1  0
 31 32  1  0
 32 33  1  0
 29 34  1  0
 34 35  1  0
 35 36  1  0
M  END
$$$$
22
     RDKit          2D

 33 33  0  0  0  0  0  0  0  0999 V2000
   18.5260   -9.0933    0.0000 C   0  0  0  0  0  0  0  0  0  0  0  0
   17.0260   -9.0933    0.0000 C   0  0  0  0  0  0  0  0  0  0  0  0
   16.2760   -7.7942    0.0000 O   0  0  0  0  0  0  0  0  0  0  0  0
   14.7760   -7.7942    0.0000 C   0  0  0  0  0  0  0  0  0  0  0  0
   14.0260   -9.0933    0.0000 O   0  0  0  0  0  0  0  0  0  0  0  0
   14.0260   -6.4952    0.0000 C   0  0  0  0  0  0  0  0  0  0  0  0
   12.5260   -6.4952    0.0000 C   0  0  0  0  0  0  0  0  0  0  0  0
   11.7760   -5.1962    0.0000 C   0  0  0  0  0  0  0  0  0  0  0  0
   10.2760   -5.1962    0.0000 C   0  0  0  0  0  0  0  0  0  0  0  0
    9.5260   -3.8971    0.0000 C   0  0  0  0  0  0  0  0  0  0  0  0
   10.2760   -2.5981    0.0000 C   0  0  0  0  0  0  0  0  0  0  0  0
    8.0260   -3.8971    0.0000 C   0  0  0  0  0  0  0  0  0  0  0  0
    7.2760   -2.5981    0.0000 C   0  0  0  0  0  0  0  0  0  0  0  0
    5.7760   -2.5981    0.0000 C   0  0  0  0  0  0  0  0  0  0  0  0
    5.0260   -1.2990    0.0000 C   0  0  0  0  0  0  0  0  0  0  0  0
    5.7760    0.0000    0.0000 C   0  0  0  0  0  0  0  0  0  0  0  0
    3.5260   -1.2990    0.0000 C   0  0  0  0  0  0  0  0  0  0  0  0
    2.7760    0.0000    0.0000 C   0  0  0  0  0  0  0  0  0  0  0  0
    1.2760    0.0000    0.0000 C   0  0  0  0  0  0  0  0  0  0  0  0
    0.3943    1.2135    0.0000 C   0  0  0  0  0  0  0  0  0  0  0  0
   -1.0323    0.7500    0.0000 C   0  0  0  0  0  0  0  0  0  0  0  0
   -1.0323   -0.7500    0.0000 O   0  0  0  0  0  0  0  0  0  0  0  0
    0.3943   -1.2135    0.0000 C   0  0  0  0  0  0  0  0  0  0  0  0
    1.6933   -1.9635    0.0000 C   0  0  0  0  0  0  0  0  0  0  0  0
   -0.2158   -2.5838    0.0000 C   0  0  0  0  0  0  0  0  0  0  0  0
   14.7760   -5.1962    0.0000 P   0  0  0  0  0  0  0  0  0  0  0  0
   15.5260   -3.8971    0.0000 O   0  0  0  0  0  0  0  0  0  0  0  0
   16.0750   -5.9462    0.0000 O   0  0  0  0  0  0  0  0  0  0  0  0
   17.3741   -5.1962    0.0000 C   0  0  0  0  0  0  0  0  0  0  0  0
   18.6731   -5.9462    0.0000 C   0  0  0  0  0  0  0  0  0  0  0  0
   13.4769   -4.4462    0.0000 O   0  0  0  0  0  0  0  0  0  0  0  0
   13.4769   -2.9462    0.0000 C   0  0  0  0  0  0  0  0  0  0  0  0
   12.1779   -2.1962    0.0000 C   0  0  0  0  0  0  0  0  0  0  0  0
  1  2  1  0
  2  3  1  0
  3  4  1  0
  4  5  2  0
  4  6  1  0
  6  7  1  0
  7  8  1  0
  8  9  1  0
  9 10  2  0
 10 11  1  0
 10 12  1  0
 12 13  1  0
 13 14  1  0
 14 15  2  0
 15 16  1  0
 15 17  1  0
 17 18  1  0
 19 18  1  6
 19 20  1  0
 20 21  1  0
 21 22  1  0
 22 23  1  0
 23 24  1  0
 23 25  1  0
  6 26  1  0
 26 27  2  0
 26 28  1  0
 28 29  1  0
 29 30  1  0
 26 31  1  0
 31 32  1  0
 32 33  1  0
 23 19  1  0
M  END
$$$$
10
     RDKit          2D

 33 32  0  0  0  0  0  0  0  0999 V2000
   -0.7500   -3.8971    0.0000 C   0  0  0  0  0  0  0  0  0  0  0  0
   -2.2500   -3.8971    0.0000 C   0  0  0  0  0  0  0  0  0  0  0  0
   -3.0000   -5.1962    0.0000 C   0  0  0  0  0  0  0  0  0  0  0  0
   -3.0000   -2.5981    0.0000 C   0  0  0  0  0  0  0  0  0  0  0  0
   -4.5000   -2.5981    0.0000 C   0  0  0  0  0  0  0  0  0  0  0  0
   -5.2500   -3.8971    0.0000 C   0  0  0  0  0  0  0  0  0  0  0  0
   -6.7500   -3.8971    0.0000 O   0  0  0  0  0  0  0  0  0  0  0  0
   -2.2500   -1.2990    0.0000 C   0  0  0  0  0  0  0  0  0  0  0  0
   -0.7500   -1.2990    0.0000 C   0  0  0  0  0  0  0  0  0  0  0  0
    0.0000    0.0000    0.0000 C   0  0  0  0  0  0  0  0  0  0  0  0
   -0.7500    1.2990    0.0000 C   0  0  0  0  0  0  0  0  0  0  0  0
    1.5000    0.0000    0.0000 C   0  0  0  0  0  0  0  0  0  0  0  0
    2.2500    1.2990    0.0000 C   0  0  0  0  0  0  0  0  0  0  0  0
    3.7500    1.2990    0.0000 C   0  0  0  0  0  0  0  0  0  0  0  0
    4.5000    2.5981    0.0000 C   0  0  0  0  0  0  0  0  0  0  0  0
    3.7500    3.8971    0.0000 C   0  0  0  0  0  0  0  0  0  0  0  0
    6.0000    2.5981    0.0000 C   0  0  0  0  0  0  0  0  0  0  0  0
    6.7500    3.8971    0.0000 C   0  0  0  0  0  0  0  0  0  0  0  0
    8.2500    3.8971    0.0000 C   0  0  0  0  0  0  0  0  0  0  0  0
    9.0000    5.1962    0.0000 C   0  0  0  0  0  0  0  0  0  0  0  0
   10.5000    5.1962    0.0000 C   0  0  0  0  0  0  0  0  0  0  0  0
   11.2500    3.8971    0.0000 O   0  0  0  0  0  0  0  0  0  0  0  0
   11.2500    6.4952    0.0000 O   0  0  0  0  0  0  0  0  0  0  0  0
   12.7500    6.4952    0.0000 C   0  0  0  0  0  0  0  0  0  0  0  0
   13.5000    7.7942    0.0000 C   0  0  0  0  0  0  0  0  0  0  0  0
    8.2500    6.4952    0.0000 P   0  0  0  0  0  0  0  0  0  0  0  0
    7.5000    7.7942    0.0000 O   0  0  0  0  0  0  0  0  0  0  0  0
    9.5490    7.2452    0.0000 O   0  0  0  0  0  0  0  0  0  0  0  0
    9.5490    8.7452    0.0000 C   0  0  0  0  0  0  0  0  0  0  0  0
   10.8481    9.4952    0.0000 C   0  0  0  0  0  0  0  0  0  0  0  0
    6.9510    5.7452    0.0000 O   0  0  0  0  0  0  0  0  0  0  0  0
    5.6519    6.4952    0.0000 C   0  0  0  0  0  0  0  0  0  0  0  0
    4.3529    5.7452    0.0000 C   0  0  0  0  0  0  0  0  0  0  0  0
  1  2  2  0
  2  3  1  0
  2  4  1  0
  4  5  1  6
  5  6  1  0
  6  7  1  0
  4  8  1  0
  8  9  1  0
  9 10  1  0
 10 11  1  0
 10 12  2  0
 12 13  1  0
 13 14  1  0
 14 15  1  0
 15 16  1  0
 15 17  2  0
 17 18  1  0
 18 19  1  0
 19 20  1  0
 20 21  1  0
 21 22  2  0
 21 23  1  0
 23 24  1  0
 24 25  1  0
 20 26  1  0
 26 27  2  0
 26 28  1  0
 28 29  1  0
 29 30  1  0
 26 31  1  0
 31 32  1  0
 32 33  1  0
M  END
$$$$
SI-3
     RDKit          2D

 32 33  0  0  0  0  0  0  0  0999 V2000
   -3.0482   -3.4774    0.0000 C   0  0  0  0  0  0  0  0  0  0  0  0
   -3.5118   -4.9040    0.0000 C   0  0  0  0  0  0  0  0  0  0  0  0
   -4.9790   -5.2159    0.0000 C   0  0  0  0  0  0  0  0  0  0  0  0
   -2.5081   -6.0187    0.0000 C   0  0  0  0  0  0  0  0  0  0  0  0
   -2.9716   -7.4453    0.0000 C   0  0  0  0  0  0  0  0  0  0  0  0
   -4.4388   -7.7572    0.0000 C   0  0  0  0  0  0  0  0  0  0  0  0
   -4.9023   -9.1838    0.0000 C   0  0  0  0  0  0  0  0  0  0  0  0
   -3.8986  -10.2985    0.0000 C   0  0  0  0  0  0  0  0  0  0  0  0
   -6.3696   -9.4956    0.0000 C   0  0  0  0  0  0  0  0  0  0  0  0
   -6.8331  -10.9222    0.0000 C   0  0  0  0  0  0  0  0  0  0  0  0
   -8.3003  -11.2341    0.0000 C   0  0  0  0  0  0  0  0  0  0  0  0
   -8.7638  -12.6607    0.0000 C   0  0  0  0  0  0  0  0  0  0  0  0
   -7.7601  -13.7754    0.0000 C   0  0  0  0  0  0  0  0  0  0  0  0
  -10.2311  -12.9725    0.0000 C   0  0  0  0  0  0  0  0  0  0  0  0
  -10.6946  -14.3991    0.0000 C   0  0  0  0  0  0  0  0  0  0  0  0
  -12.1618  -14.7110    0.0000 C   0  0  0  0  0  0  0  0  0  0  0  0
  -12.6253  -16.1376    0.0000 O   0  0  0  0  0  0  0  0  0  0  0  0
   -1.0409   -5.7068    0.0000 C   0  0  0  0  0  0  0  0  0  0  0  0
   -0.5773   -4.2803    0.0000 C   0  0  0  0  0  0  0  0  0  0  0  0
   -1.5810   -3.1655    0.0000 O   0  0  0  0  0  0  0  0  0  0  0  0
    0.8899   -3.9684    0.0000 N   0  0  0  0  0  0  0  0  0  0  0  0
    2.0046   -4.9721    0.0000 C   0  0  0  0  0  0  0  0  0  0  0  0
    1.8478   -6.4639    0.0000 O   0  0  0  0  0  0  0  0  0  0  0  0
    3.3037   -4.2221    0.0000 O   0  0  0  0  0  0  0  0  0  0  0  0
    2.9918   -2.7549    0.0000 C   0  0  0  0  0  0  0  0  0  0  0  0
    1.5000   -2.5981    0.0000 C   0  0  0  0  0  0  0  0  0  0  0  0
    0.7500   -1.2990    0.0000 C   0  0  0  0  0  0  0  0  0  0  0  0
    1.5000    0.0000    0.0000 C   0  0  0  0  0  0  0  0  0  0  0  0
    0.7500    1.2990    0.0000 C   0  0  0  0  0  0  0  0  0  0  0  0
   -0.7500    1.2990    0.0000 C   0  0  0  0  0  0  0  0  0  0  0  0
   -1.5000    0.0000    0.0000 C   0  0  0  0  0  0  0  0  0  0  0  0
   -0.7500   -1.2990    0.0000 C   0  0  0  0  0  0  0  0  0  0  0  0
  1  2  2  0
  2  3  1  0
  2  4  1  0
  4  5  1  6
  5  6  1  0
  6  7  1  0
  7  8  1  0
  7  9  2  0
  9 10  1  0
 10 11  1  0
 11 12  1  0
 12 13  1  0
 12 14  2  0
 14 15  1  0
 15 16  1  0
 16 17  1  0
  4 18  1  0
 18 19  1  0
 19 20  2  0
 19 21  1  0
 21 22  1  0
 22 23  2  0
 22 24  1  0
 24 25  1  0
 25 26  1  0
 26 27  1  6
 27 28  2  0
 28 29  1  0
 29 30  2  0
 30 31  1  0
 31 32  2  0
 26 21  1  0
 32 27  1  0
M  END
$$$$
SI-4
     RDKit          2D

 32 33  0  0  0  0  0  0  0  0999 V2000
   -3.0482   -3.4774    0.0000 C   0  0  0  0  0  0  0  0  0  0  0  0
   -3.5118   -4.9040    0.0000 C   0  0  0  0  0  0  0  0  0  0  0  0
   -4.9790   -5.2159    0.0000 C   0  0  0  0  0  0  0  0  0  0  0  0
   -2.5081   -6.0187    0.0000 C   0  0  0  0  0  0  0  0  0  0  0  0
   -2.9716   -7.4453    0.0000 C   0  0  0  0  0  0  0  0  0  0  0  0
   -4.4388   -7.7572    0.0000 C   0  0  0  0  0  0  0  0  0  0  0  0
   -4.9023   -9.1838    0.0000 C   0  0  0  0  0  0  0  0  0  0  0  0
   -3.8986  -10.2985    0.0000 C   0  0  0  0  0  0  0  0  0  0  0  0
   -6.3696   -9.4956    0.0000 C   0  0  0  0  0  0  0  0  0  0  0  0
   -6.8331  -10.9222    0.0000 C   0  0  0  0  0  0  0  0  0  0  0  0
   -8.3003  -11.2341    0.0000 C   0  0  0  0  0  0  0  0  0  0  0  0
   -8.7638  -12.6607    0.0000 C   0  0  0  0  0  0  0  0  0  0  0  0
   -7.7601  -13.7754    0.0000 C   0  0  0  0  0  0  0  0  0  0  0  0
  -10.2311  -12.9725    0.0000 C   0  0  0  0  0  0  0  0  0  0  0  0
  -10.6946  -14.3991    0.0000 C   0  0  0  0  0  0  0  0  0  0  0  0
  -12.1618  -14.7110    0.0000 C   0  0  0  0  0  0  0  0  0  0  0  0
  -12.6253  -16.1376    0.0000 I   0  0  0  0  0  0  0  0  0  0  0  0
   -1.0409   -5.7068    0.0000 C   0  0  0  0  0  0  0  0  0  0  0  0
   -0.5773   -4.2803    0.0000 C   0  0  0  0  0  0  0  0  0  0  0  0
   -1.5810   -3.1655    0.0000 O   0  0  0  0  0  0  0  0  0  0  0  0
    0.8899   -3.9684    0.0000 N   0  0  0  0  0  0  0  0  0  0  0  0
    2.0046   -4.9721    0.0000 C   0  0  0  0  0  0  0  0  0  0  0  0
    1.8478   -6.4639    0.0000 O   0  0  0  0  0  0  0  0  0  0  0  0
    3.3037   -4.2221    0.0000 O   0  0  0  0  0  0  0  0  0  0  0  0
    2.9918   -2.7549    0.0000 C   0  0  0  0  0  0  0  0  0  0  0  0
    1.5000   -2.5981    0.0000 C   0  0  0  0  0  0  0  0  0  0  0  0
    0.7500   -1.2990    0.0000 C   0  0  0  0  0  0  0  0  0  0  0  0
    1.5000    0.0000    0.0000 C   0  0  0  0  0  0  0  0  0  0  0  0
    0.7500    1.2990    0.0000 C   0  0  0  0  0  0  0  0  0  0  0  0
   -0.7500    1.2990    0.0000 C   0  0  0  0  0  0  0  0  0  0  0  0
   -1.5000    0.0000    0.0000 C   0  0  0  0  0  0  0  0  0  0  0  0
   -0.7500   -1.2990    0.0000 C   0  0  0  0  0  0  0  0  0  0  0  0
  1  2  2  0
  2  3  1  0
  2  4  1  0
  4  5  1  6
  5  6  1  0
  6  7  1  0
  7  8  1  0
  7  9  2  0
  9 10  1  0
 10 11  1  0
 11 12  1  0
 12 13  1  0
 12 14  2  0
 14 15  1  0
 15 16  1  0
 16 17  1  0
  4 18  1  0
 18 19  1  0
 19 20  2  0
 19 21  1  0
 21 22  1  0
 22 23  2  0
 22 24  1  0
 24 25  1  0
 25 26  1  0
 26 27  1  6
 27 28  2  0
 28 29  1  0
 29 30  2  0
 30 31  1  0
 31 32  2  0
 26 21  1  0
 32 27  1  0
M  END
$$$$
24
     RDKit          2D

 45 46  0  0  0  0  0  0  0  0999 V2000
   -3.0482   -3.4774    0.0000 C   0  0  0  0  0  0  0  0  0  0  0  0
   -3.5118   -4.9040    0.0000 C   0  0  0  0  0  0  0  0  0  0  0  0
   -4.9790   -5.2159    0.0000 C   0  0  0  0  0  0  0  0  0  0  0  0
   -2.5081   -6.0187    0.0000 C   0  0  0  0  0  0  0  0  0  0  0  0
   -2.9716   -7.4453    0.0000 C   0  0  0  0  0  0  0  0  0  0  0  0
   -4.4388   -7.7572    0.0000 C   0  0  0  0  0  0  0  0  0  0  0  0
   -4.9023   -9.1838    0.0000 C   0  0  0  0  0  0  0  0  0  0  0  0
   -3.8986  -10.2985    0.0000 C   0  0  0  0  0  0  0  0  0  0  0  0
   -6.3696   -9.4956    0.0000 C   0  0  0  0  0  0  0  0  0  0  0  0
   -6.8331  -10.9222    0.0000 C   0  0  0  0  0  0  0  0  0  0  0  0
   -8.3003  -11.2341    0.0000 C   0  0  0  0  0  0  0  0  0  0  0  0
   -8.7638  -12.6607    0.0000 C   0  0  0  0  0  0  0  0  0  0  0  0
   -7.7601  -13.7754    0.0000 C   0  0  0  0  0  0  0  0  0  0  0  0
  -10.2311  -12.9725    0.0000 C   0  0  0  0  0  0  0  0  0  0  0  0
  -10.6946  -14.3991    0.0000 C   0  0  0  0  0  0  0  0  0  0  0  0
  -12.1618  -14.7110    0.0000 C   0  0  0  0  0  0  0  0  0  0  0  0
  -12.6253  -16.1376    0.0000 C   0  0  0  0  0  0  0  0  0  0  0  0
  -14.0926  -16.4494    0.0000 C   0  0  0  0  0  0  0  0  0  0  0  0
  -15.0963  -15.3347    0.0000 O   0  0  0  0  0  0  0  0  0  0  0  0
  -14.5561  -17.8760    0.0000 O   0  0  0  0  0  0  0  0  0  0  0  0
  -16.0233  -18.1879    0.0000 C   0  0  0  0  0  0  0  0  0  0  0  0
  -16.4868  -19.6145    0.0000 C   0  0  0  0  0  0  0  0  0  0  0  0
  -11.6216  -17.2523    0.0000 P   0  0  0  0  0  0  0  0  0  0  0  0
  -10.6179  -18.3670    0.0000 O   0  0  0  0  0  0  0  0  0  0  0  0
  -12.7364  -18.2560    0.0000 O   0  0  0  0  0  0  0  0  0  0  0  0
  -12.4245  -19.7232    0.0000 C   0  0  0  0  0  0  0  0  0  0  0  0
  -13.5392  -20.7269    0.0000 C   0  0  0  0  0  0  0  0  0  0  0  0
  -10.5069  -16.2486    0.0000 O   0  0  0  0  0  0  0  0  0  0  0  0
   -9.0803  -16.7121    0.0000 C   0  0  0  0  0  0  0  0  0  0  0  0
   -7.9656  -15.7084    0.0000 C   0  0  0  0  0  0  0  0  0  0  0  0
   -1.0409   -5.7068    0.0000 C   0  0  0  0  0  0  0  0  0  0  0  0
   -0.5773   -4.2803    0.0000 C   0  0  0  0  0  0  0  0  0  0  0  0
   -1.5810   -3.1655    0.0000 O   0  0  0  0  0  0  0  0  0  0  0  0
    0.8899   -3.9684    0.0000 N   0  0  0  0  0  0  0  0  0  0  0  0
    2.0046   -4.9721    0.0000 C   0  0  0  0  0  0  0  0  0  0  0  0
    1.8478   -6.4639    0.0000 O   0  0  0  0  0  0  0  0  0  0  0  0
    3.3037   -4.2221    0.0000 O   0  0  0  0  0  0  0  0  0  0  0  0
    2.9918   -2.7549    0.0000 C   0  0  0  0  0  0  0  0  0  0  0  0
    1.5000   -2.5981    0.0000 C   0  0  0  0  0  0  0  0  0  0  0  0
    0.7500   -1.2990    0.0000 C   0  0  0  0  0  0  0  0  0  0  0  0
    1.5000    0.0000    0.0000 C   0  0  0  0  0  0  0  0  0  0  0  0
    0.7500    1.2990    0.0000 C   0  0  0  0  0  0  0  0  0  0  0  0
   -0.7500    1.2990    0.0000 C   0  0  0  0  0  0  0  0  0  0  0  0
   -1.5000    0.0000    0.0000 C   0  0  0  0  0  0  0  0  0  0  0  0
   -0.7500   -1.2990    0.0000 C   0  0  0  0  0  0  0  0  0  0  0  0
  1  2  2  0
  2  3  1  0
  2  4  1  0
  4  5  1  6
  5  6  1  0
  6  7  1  0
  7  8  1  0
  7  9  2  0
  9 10  1  0
 10 11  1  0
 11 12  1  0
 12 13  1  0
 12 14  2  0
 14 15  1  0
 15 16  1  0
 16 17  1  0
 17 18  1  0
 18 19  2  0
 18 20  1  0
 20 21  1  0
 21 22  1  0
 17 23  1  0
 23 24  2  0
 23 25  1  0
 25 26  1  0
 26 27  1  0
 23 28  1  0
 28 29  1  0
 29 30  1  0
  4 31  1  0
 31 32  1  0
 32 33  2  0
 32 34  1  0
 34 35  1  0
 35 36  2  0
 35 37  1  0
 37 38  1  0
 38 39  1  0
 39 40  1  6
 40 41  2  0
 41 42  1  0
 42 43  2  0
 43 44  1  0
 44 45  2  0
 39 34  1  0
 45 40  1  0
M  END
$$$$
9-A
     RDKit          2D

 34 34  0  0  0  0  0  0  0  0999 V2000
    9.1544   -3.8148    0.0000 C   0  0  0  0  0  0  0  0  0  0  0  0
    8.6414   -5.2244    0.0000 C   0  0  0  0  0  0  0  0  0  0  0  0
    9.6055   -6.3735    0.0000 C   0  0  0  0  0  0  0  0  0  0  0  0
    7.1641   -5.4849    0.0000 C   0  0  0  0  0  0  0  0  0  0  0  0
    6.6511   -6.8944    0.0000 C   0  0  0  0  0  0  0  0  0  0  0  0
    7.6153   -8.0435    0.0000 C   0  0  0  0  0  0  0  0  0  0  0  0
    7.1023   -9.4530    0.0000 O   0  0  0  0  0  0  0  0  0  0  0  0
    6.2000   -4.3358    0.0000 C   0  0  0  0  0  0  0  0  0  0  0  0
    6.7130   -2.9263    0.0000 C   0  0  0  0  0  0  0  0  0  0  0  0
    5.7488   -1.7772    0.0000 C   0  0  0  0  0  0  0  0  0  0  0  0
    6.2618   -0.3676    0.0000 C   0  0  0  0  0  0  0  0  0  0  0  0
    4.2716   -2.0377    0.0000 C   0  0  0  0  0  0  0  0  0  0  0  0
    3.3074   -0.8886    0.0000 C   0  0  0  0  0  0  0  0  0  0  0  0
    1.8302   -1.1491    0.0000 C   0  0  0  0  0  0  0  0  0  0  0  0
    0.8660    0.0000    0.0000 C   0  0  0  0  0  0  0  0  0  0  0  0
    1.8302    1.1491    0.0000 C   0  0  0  0  0  0  0  0  0  0  0  0
   -0.4330    0.7500    0.0000 O   0  0  0  0  0  0  0  0  0  0  0  0
   -0.4330   -0.7500    0.0000 C   0  0  0  0  0  0  0  0  0  0  0  0
   -1.1830   -2.0490    0.0000 C   0  0  0  0  0  0  0  0  0  0  0  0
   -2.6830   -2.0490    0.0000 C   0  0  0  0  0  0  0  0  0  0  0  0
   -3.4330   -3.3481    0.0000 C   0  0  0  0  0  0  0  0  0  0  0  0
   -4.9330   -3.3481    0.0000 C   0  0  0  0  0  0  0  0  0  0  0  0
   -5.6830   -2.0490    0.0000 O   0  0  0  0  0  0  0  0  0  0  0  0
   -5.6830   -4.6471    0.0000 O   0  0  0  0  0  0  0  0  0  0  0  0
   -7.1830   -4.6471    0.0000 C   0  0  0  0  0  0  0  0  0  0  0  0
   -7.9330   -5.9462    0.0000 C   0  0  0  0  0  0  0  0  0  0  0  0
   -2.6830   -4.6471    0.0000 P   0  0  0  0  0  0  0  0  0  0  0  0
   -1.9330   -5.9462    0.0000 O   0  0  0  0  0  0  0  0  0  0  0  0
   -3.9821   -5.3971    0.0000 O   0  0  0  0  0  0  0  0  0  0  0  0
   -3.9821   -6.8971    0.0000 C   0  0  0  0  0  0  0  0  0  0  0  0
   -5.2811   -7.6471    0.0000 C   0  0  0  0  0  0  0  0  0  0  0  0
   -1.3840   -3.8971    0.0000 O   0  0  0  0  0  0  0  0  0  0  0  0
   -0.0849   -4.6471    0.0000 C   0  0  0  0  0  0  0  0  0  0  0  0
    1.2141   -3.8971    0.0000 C   0  0  0  0  0  0  0  0  0  0  0  0
  1  2  2  0
  2  3  1  0
  2  4  1  0
  4  5  1  6
  5  6  1  0
  6  7  1  0
  4  8  1  0
  8  9  1  0
  9 10  1  0
 10 11  1  0
 10 12  2  0
 12 13  1  0
 13 14  1  0
 14 15  1  0
 15 16  1  1
 15 17  1  0
 17 18  1  0
 18 19  1  1
 19 20  1  0
 20 21  1  0
 21 22  1  0
 22 23  2  0
 22 24  1  0
 24 25  1  0
 25 26  1  0
 21 27  1  0
 27 28  2  0
 27 29  1  0
 29 30  1  0
 30 31  1  0
 27 32  1  0
 32 33  1  0
 33 34  1  0
 18 15  1  0
M  END
$$$$
SI-5-A
     RDKit          2D

 34 34  0  0  0  0  0  0  0  0999 V2000
    9.1544   -3.8148    0.0000 C   0  0  0  0  0  0  0  0  0  0  0  0
    8.6414   -5.2244    0.0000 C   0  0  0  0  0  0  0  0  0  0  0  0
    9.6055   -6.3735    0.0000 C   0  0  0  0  0  0  0  0  0  0  0  0
    7.1641   -5.4849    0.0000 C   0  0  0  0  0  0  0  0  0  0  0  0
    6.6511   -6.8944    0.0000 C   0  0  0  0  0  0  0  0  0  0  0  0
    7.6153   -8.0435    0.0000 C   0  0  0  0  0  0  0  0  0  0  0  0
    7.1023   -9.4530    0.0000 O   0  0  0  0  0  0  0  0  0  0  0  0
    6.2000   -4.3358    0.0000 C   0  0  0  0  0  0  0  0  0  0  0  0
    6.7130   -2.9263    0.0000 C   0  0  0  0  0  0  0  0  0  0  0  0
    5.7488   -1.7772    0.0000 C   0  0  0  0  0  0  0  0  0  0  0  0
    6.2618   -0.3676    0.0000 C   0  0  0  0  0  0  0  0  0  0  0  0
    4.2716   -2.0377    0.0000 C   0  0  0  0  0  0  0  0  0  0  0  0
    3.3074   -0.8886    0.0000 C   0  0  0  0  0  0  0  0  0  0  0  0
    1.8302   -1.1491    0.0000 C   0  0  0  0  0  0  0  0  0  0  0  0
    0.8660    0.0000    0.0000 C   0  0  0  0  0  0  0  0  0  0  0  0
    1.8302    1.1491    0.0000 C   0  0  0  0  0  0  0  0  0  0  0  0
   -0.4330    0.7500    0.0000 O   0  0  0  0  0  0  0  0  0  0  0  0
   -0.4330   -0.7500    0.0000 C   0  0  0  0  0  0  0  0  0  0  0  0
   -1.1830   -2.0490    0.0000 C   0  0  0  0  0  0  0  0  0  0  0  0
   -2.6830   -2.0490    0.0000 C   0  0  0  0  0  0  0  0  0  0  0  0
   -3.4330   -3.3481    0.0000 C   0  0  0  0  0  0  0  0  0  0  0  0
   -4.9330   -3.3481    0.0000 C   0  0  0  0  0  0  0  0  0  0  0  0
   -5.6830   -2.0490    0.0000 O   0  0  0  0  0  0  0  0  0  0  0  0
   -5.6830   -4.6471    0.0000 O   0  0  0  0  0  0  0  0  0  0  0  0
   -7.1830   -4.6471    0.0000 C   0  0  0  0  0  0  0  0  0  0  0  0
   -7.9330   -5.9462    0.0000 C   0  0  0  0  0  0  0  0  0  0  0  0
   -2.6830   -4.6471    0.0000 P   0  0  0  0  0  0  0  0  0  0  0  0
   -1.9330   -5.9462    0.0000 O   0  0  0  0  0  0  0  0  0  0  0  0
   -3.9821   -5.3971    0.0000 O   0  0  0  0  0  0  0  0  0  0  0  0
   -3.9821   -6.8971    0.0000 C   0  0  0  0  0  0  0  0  0  0  0  0
   -5.2811   -7.6471    0.0000 C   0  0  0  0  0  0  0  0  0  0  0  0
   -1.3840   -3.8971    0.0000 O   0  0  0  0  0  0  0  0  0  0  0  0
   -0.0849   -4.6471    0.0000 C   0  0  0  0  0  0  0  0  0  0  0  0
    1.2141   -3.8971    0.0000 C   0  0  0  0  0  0  0  0  0  0  0  0
  1  2  2  0
  2  3  1  0
  2  4  1  0
  4  5  1  6
  5  6  1  0
  6  7  2  0
  4  8  1  0
  8  9  1  0
  9 10  1  0
 10 11  1  0
 10 12  2  0
 12 13  1  0
 13 14  1  0
 14 15  1  0
 15 16  1  1
 15 17  1  0
 17 18  1  0
 18 19  1  1
 19 20  1  0
 20 21  1  0
 21 22  1  0
 22 23  2  0
 22 24  1  0
 24 25  1  0
 25 26  1  0
 21 27  1  0
 27 28  2  0
 27 29  1  0
 29 30  1  0
 30 31  1  0
 27 32  1  0
 32 33  1  0
 33 34  1  0
 18 15  1  0
M  END
$$$$
farnesol
     RDKit          2D

 16 15  0  0  0  0  0  0  0  0999 V2000
   -5.2500   -3.8971    0.0000 C   0  0  0  0  0  0  0  0  0  0  0  0
   -4.5000   -2.5981    0.0000 C   0  0  0  0  0  0  0  0  0  0  0  0
   -5.2500   -1.2990    0.0000 C   0  0  0  0  0  0  0  0  0  0  0  0
   -3.0000   -2.5981    0.0000 C   0  0  0  0  0  0  0  0  0  0  0  0
   -2.2500   -1.2990    0.0000 C   0  0  0  0  0  0  0  0  0  0  0  0
   -0.7500   -1.2990    0.0000 C   0  0  0  0  0  0  0  0  0  0  0  0
    0.0000    0.0000    0.0000 C   0  0  0  0  0  0  0  0  0  0  0  0
   -0.7500    1.2990    0.0000 C   0  0  0  0  0  0  0  0  0  0  0  0
    1.5000    0.0000    0.0000 C   0  0  0  0  0  0  0  0  0  0  0  0
    2.2500    1.2990    0.0000 C   0  0  0  0  0  0  0  0  0  0  0  0
    3.7500    1.2990    0.0000 C   0  0  0  0  0  0  0  0  0  0  0  0
    4.5000    2.5981    0.0000 C   0  0  0  0  0  0  0  0  0  0  0  0
    3.7500    3.8971    0.0000 C   0  0  0  0  0  0  0  0  0  0  0  0
    6.0000    2.5981    0.0000 C   0  0  0  0  0  0  0  0  0  0  0  0
    6.7500    3.8971    0.0000 C   0  0  0  0  0  0  0  0  0  0  0  0
    8.2500    3.8971    0.0000 O   0  0  0  0  0  0  0  0  0  0  0  0
  1  2  1  0
  2  3  1  0
  2  4  2  0
  4  5  1  0
  5  6  1  0
  6  7  1  0
  7  8  1  0
  7  9  2  0
  9 10  1  0
 10 11  1  0
 11 12  1  0
 12 13  1  0
 12 14  2  0
 14 15  1  0
 15 16  1  0
M  END
$$$$
farnesal
     RDKit          2D

 16 15  0  0  0  0  0  0  0  0999 V2000
   -5.2500   -3.8971    0.0000 C   0  0  0  0  0  0  0  0  0  0  0  0
   -4.5000   -2.5981    0.0000 C   0  0  0  0  0  0  0  0  0  0  0  0
   -5.2500   -1.2990    0.0000 C   0  0  0  0  0  0  0  0  0  0  0  0
   -3.0000   -2.5981    0.0000 C   0  0  0  0  0  0  0  0  0  0  0  0
   -2.2500   -1.2990    0.0000 C   0  0  0  0  0  0  0  0  0  0  0  0
   -0.7500   -1.2990    0.0000 C   0  0  0  0  0  0  0  0  0  0  0  0
    0.0000    0.0000    0.0000 C   0  0  0  0  0  0  0  0  0  0  0  0
   -0.7500    1.2990    0.0000 C   0  0  0  0  0  0  0  0  0  0  0  0
    1.5000    0.0000    0.0000 C   0  0  0  0  0  0  0  0  0  0  0  0
    2.2500    1.2990    0.0000 C   0  0  0  0  0  0  0  0  0  0  0  0
    3.7500    1.2990    0.0000 C   0  0  0  0  0  0  0  0  0  0  0  0
    4.5000    2.5981    0.0000 C   0  0  0  0  0  0  0  0  0  0  0  0
    3.7500    3.8971    0.0000 C   0  0  0  0  0  0  0  0  0  0  0  0
    6.0000    2.5981    0.0000 C   0  0  0  0  0  0  0  0  0  0  0  0
    6.7500    3.8971    0.0000 C   0  0  0  0  0  0  0  0  0  0  0  0
    8.2500    3.8971    0.0000 O   0  0  0  0  0  0  0  0  0  0  0  0
  1  2  1  0
  2  3  1  0
  2  4  2  0
  4  5  1  0
  5  6  1  0
  6  7  1  0
  7  8  1  0
  7  9  2  0
  9 10  1  0
 10 11  1  0
 11 12  1  0
 12 13  1  0
 12 14  2  0
 14 15  1  0
 15 16  2  0
M  END
$$$$
tetraene
     RDKit          2D

 16 15  0  0  0  0  0  0  0  0999 V2000
   -2.2500   -1.2990    0.0000 C   0  0  0  0  0  0  0  0  0  0  0  0
   -0.7500   -1.2990    0.0000 C   0  0  0  0  0  0  0  0  0  0  0  0
    0.0000    0.0000    0.0000 C   0  0  0  0  0  0  0  0  0  0  0  0
    1.5000    0.0000    0.0000 C   0  0  0  0  0  0  0  0  0  0  0  0
    2.2500   -1.2990    0.0000 C   0  0  0  0  0  0  0  0  0  0  0  0
    2.2500    1.2990    0.0000 C   0  0  0  0  0  0  0  0  0  0  0  0
    3.7500    1.2990    0.0000 C   0  0  0  0  0  0  0  0  0  0  0  0
    4.5000    2.5981    0.0000 C   0  0  0  0  0  0  0  0  0  0  0  0
    6.0000    2.5981    0.0000 C   0  0  0  0  0  0  0  0  0  0  0  0
    6.7500    1.2990    0.0000 C   0  0  0  0  0  0  0  0  0  0  0  0
    6.7500    3.8971    0.0000 C   0  0  0  0  0  0  0  0  0  0  0  0
    8.2500    3.8971    0.0000 C   0  0  0  0  0  0  0  0  0  0  0  0
    9.0000    5.1962    0.0000 C   0  0  0  0  0  0  0  0  0  0  0  0
   10.5000    5.1962    0.0000 C   0  0  0  0  0  0  0  0  0  0  0  0
   11.2500    6.4952    0.0000 C   0  0  0  0  0  0  0  0  0  0  0  0
   11.2500    3.8971    0.0000 C   0  0  0  0  0  0  0  0  0  0  0  0
  1  2  2  0
  2  3  1  0
  3  4  2  0
  4  5  1  0
  4  6  1  0
  6  7  1  0
  7  8  1  0
  8  9  2  0
  9 10  1  0
  9 11  1  0
 11 12  1  0
 12 13  1  0
 13 14  2  0
 14 15  1  0
 14 16  1  0
M  END
$$$$
11
     RDKit          2D

 17 16  0  0  0  0  0  0  0  0999 V2000
   -5.2500   -3.8971    0.0000 C   0  0  0  0  0  0  0  0  0  0  0  0
   -4.5000   -2.5981    0.0000 C   0  0  0  0  0  0  0  0  0  0  0  0
   -5.2500   -1.2990    0.0000 C   0  0  0  0  0  0  0  0  0  0  0  0
   -3.0000   -2.5981    0.0000 C   0  0  0  0  0  0  0  0  0  0  0  0
   -2.2500   -1.2990    0.0000 C   0  0  0  0  0  0  0  0  0  0  0  0
   -0.7500   -1.2990    0.0000 C   0  0  0  0  0  0  0  0  0  0  0  0
    0.0000    0.0000    0.0000 C   0  0  0  0  0  0  0  0  0  0  0  0
   -0.7500    1.2990    0.0000 C   0  0  0  0  0  0  0  0  0  0  0  0
    1.5000    0.0000    0.0000 C   0  0  0  0  0  0  0  0  0  0  0  0
    2.2500    1.2990    0.0000 C   0  0  0  0  0  0  0  0  0  0  0  0
    3.7500    1.2990    0.0000 C   0  0  0  0  0  0  0  0  0  0  0  0
    4.5000    2.5981    0.0000 C   0  0  0  0  0  0  0  0  0  0  0  0
    3.7500    3.8971    0.0000 C   0  0  0  0  0  0  0  0  0  0  0  0
    6.0000    2.5981    0.0000 C   0  0  0  0  0  0  0  0  0  0  0  0
    6.7500    3.8971    0.0000 C   0  0  0  0  0  0  0  0  0  0  0  0
    8.2500    3.8971    0.0000 C   0  0  0  0  0  0  0  0  0  0  0  0
    9.0000    5.1962    0.0000 O   0  0  0  0  0  0  0  0  0  0  0  0
  1  2  1  0
  2  3  1  0
  2  4  2  0
  4  5  1  0
  5  6  1  0
  6  7  1  0
  7  8  1  0
  7  9  2  0
  9 10  1  0
 10 11  1  0
 11 12  1  0
 12 13  1  0
 12 14  2  0
 14 15  1  0
 15 16  1  0
 16 17  1  0
M  END
$$$$
oxazolidinone
     RDKit          2D

 12 13  0  0  0  0  0  0  0  0999 V2000
    4.6740   -4.8322    0.0000 O   0  0  0  0  0  0  0  0  0  0  0  0
    3.3037   -4.2221    0.0000 C   0  0  0  0  0  0  0  0  0  0  0  0
    2.9918   -2.7549    0.0000 N   0  0  0  0  0  0  0  0  0  0  0  0
    1.5000   -2.5981    0.0000 C   0  0  0  0  0  0  0  0  0  0  0  0
    0.7500   -1.2990    0.0000 C   0  0  0  0  0  0  0  0  0  0  0  0
    1.5000    0.0000    0.0000 C   0  0  0  0  0  0  0  0  0  0  0  0
    0.7500    1.2990    0.0000 C   0  0  0  0  0  0  0  0  0  0  0  0
   -0.7500    1.2990    0.0000 C   0  0  0  0  0  0  0  0  0  0  0  0
   -1.5000    0.0000    0.0000 C   0  0  0  0  0  0  0  0  0  0  0  0
   -0.7500   -1.2990    0.0000 C   0  0  0  0  0  0  0  0  0  0  0  0
    0.8899   -3.9684    0.0000 C   0  0  0  0  0  0  0  0  0  0  0  0
    2.0046   -4.9721    0.0000 O   0  0  0  0  0  0  0  0  0  0  0  0
  1  2  2  0
  2  3  1  0
  3  4  1  0
  4  5  1  1
  5  6  2  0
  6  7  1  0
  7  8  2  0
  8  9  1  0
  9 10  2  0
  4 11  1  0
 11 12  1  0
 12  2  1  0
 10  5  1  0
M  END
$$$$
phosphonoacetic-acid
     RDKit          2D

 12 11  0  0  0  0  0  0  0  0999 V2000
    0.0000    0.0000    0.0000 C   0  0  0  0  0  0  0  0  0  0  0  0
    1.2990    0.7500    0.0000 C   0  0  0  0  0  0  0  0  0  0  0  0
    2.5981   -0.0000    0.0000 O   0  0  0  0  0  0  0  0  0  0  0  0
    3.8971    0.7500    0.0000 P   0  0  0  0  0  0  0  0  0  0  0  0
    4.6471   -0.5490    0.0000 O   0  0  0  0  0  0  0  0  0  0  0  0
    3.1471    2.0490    0.0000 C   0  0  0  0  0  0  0  0  0  0  0  0
    3.8971    3.3481    0.0000 C   0  0  0  0  0  0  0  0  0  0  0  0
    5.3971    3.3481    0.0000 O   0  0  0  0  0  0  0  0  0  0  0  0
    3.1471    4.6471    0.0000 O   0  0  0  0  0  0  0  0  0  0  0  0
    5.1962    1.5000    0.0000 O   0  0  0  0  0  0  0  0  0  0  0  0
    6.4952    0.7500    0.0000 C   0  0  0  0  0  0  0  0  0  0  0  0
    7.7942    1.5000    0.0000 C   0  0  0  0  0  0  0  0  0  0  0  0
  1  2  1  0
  2  3  1  0
  3  4  1  0
  4  5  2  0
  4  6  1  0
  6  7  1  0
  7  8  2  0
  7  9  1  0
  4 10  1  0
 10 11  1  0
 11 12  1  0
M  END
$$$$
20
     RDKit          2D

 14 13  0  0  0  0  0  0  0  0999 V2000
    0.0000    0.0000    0.0000 C   0  0  0  0  0  0  0  0  0  0  0  0
    1.2990    0.7500    0.0000 C   0  0  0  0  0  0  0  0  0  0  0  0
    2.5981   -0.0000    0.0000 O   0  0  0  0  0  0  0  0  0  0  0  0
    3.8971    0.7500    0.0000 C   0  0  0  0  0  0  0  0  0  0  0  0
    3.8971    2.2500    0.0000 O   0  0  0  0  0  0  0  0  0  0  0  0
    5.1962   -0.0000    0.0000 C   0  0  0  0  0  0  0  0  0  0  0  0
    6.4952    0.7500    0.0000 P   0  0  0  0  0  0  0  0  0  0  0  0
    7.7942    1.5000    0.0000 O   0  0  0  0  0  0  0  0  0  0  0  0
    7.2452   -0.5490    0.0000 O   0  0  0  0  0  0  0  0  0  0  0  0
    8.7452   -0.5490    0.0000 C   0  0  0  0  0  0  0  0  0  0  0  0
    9.4952   -1.8481    0.0000 C   0  0  0  0  0  0  0  0  0  0  0  0
    5.7452    2.0490    0.0000 O   0  0  0  0  0  0  0  0  0  0  0  0
    6.4952    3.3481    0.0000 C   0  0  0  0  0  0  0  0  0  0  0  0
    5.7452    4.6471    0.0000 C   0  0  0  0  0  0  0  0  0  0  0  0
  1  2  1  0
  2  3  1  0
  3  4  1  0
  4  5  2  0
  4  6  1  0
  6  7  1  0
  7  8  2  0
  7  9  1  0
  9 10  1  0
 10 11  1  0
  7 12  1  0
 12 13  1  0
 13 14  1  0
M  END
$$$$
9-B
     RDKit          2D

 34 34  0  0  0  0  0  0  0  0999 V2000
    2.2814   -3.7077    0.0000 C   0  0  0  0  0  0  0  0  0  0  0  0
    3.7586   -3.4472    0.0000 C   0  0  0  0  0  0  0  0  0  0  0  0
    4.7228   -4.5963    0.0000 C   0  0  0  0  0  0  0  0  0  0  0  0
    4.2716   -2.0377    0.0000 C   0  0  0  0  0  0  0  0  0  0  0  0
    5.7488   -1.7772    0.0000 C   0  0  0  0  0  0  0  0  0  0  0  0
    6.7130   -2.9263    0.0000 C   0  0  0  0  0  0  0  0  0  0  0  0
    8.1902   -2.6658    0.0000 O   0  0  0  0  0  0  0  0  0  0  0  0
    3.3074   -0.8886    0.0000 C   0  0  0  0  0  0  0  0  0  0  0  0
    1.8302   -1.1491    0.0000 C   0  0  0  0  0  0  0  0  0  0  0  0
    0.8660    0.0000    0.0000 C   0  0  0  0  0  0  0  0  0  0  0  0
    1.8302    1.1491    0.0000 C   0  0  0  0  0  0  0  0  0  0  0  0
   -0.4330    0.7500    0.0000 O   0  0  0  0  0  0  0  0  0  0  0  0
   -0.4330   -0.7500    0.0000 C   0  0  0  0  0  0  0  0  0  0  0  0
   -1.1830   -2.0490    0.0000 C   0  0  0  0  0  0  0  0  0  0  0  0
   -2.6830   -2.0490    0.0000 C   0  0  0  0  0  0  0  0  0  0  0  0
   -3.4330   -3.3481    0.0000 C   0  0  0  0  0  0  0  0  0  0  0  0
   -2.6830   -4.6471    0.0000 C   0  0  0  0  0  0  0  0  0  0  0  0
   -4.9330   -3.3481    0.0000 C   0  0  0  0  0  0  0  0  0  0  0  0
   -5.6830   -4.6471    0.0000 C   0  0  0  0  0  0  0  0  0  0  0  0
   -7.1830   -4.6471    0.0000 C   0  0  0  0  0  0  0  0  0  0  0  0
   -7.9330   -5.9462    0.0000 C   0  0  0  0  0  0  0  0  0  0  0  0
   -9.4330   -5.9462    0.0000 C   0  0  0  0  0  0  0  0  0  0  0  0
  -10.1830   -4.6471    0.0000 O   0  0  0  0  0  0  0  0  0  0  0  0
  -10.1830   -7.2452    0.0000 O   0  0  0  0  0  0  0  0  0  0  0  0
  -11.6830   -7.2452    0.0000 C   0  0  0  0  0  0  0  0  0  0  0  0
  -12.4330   -8.5442    0.0000 C   0  0  0  0  0  0  0  0  0  0  0  0
   -7.1830   -7.2452    0.0000 P   0  0  0  0  0  0  0  0  0  0  0  0
   -6.4330   -8.5442    0.0000 O   0  0  0  0  0  0  0  0  0  0  0  0
   -8.4821   -7.9952    0.0000 O   0  0  0  0  0  0  0  0  0  0  0  0
   -8.4821   -9.4952    0.0000 C   0  0  0  0  0  0  0  0  0  0  0  0
   -9.7811  -10.2452    0.0000 C   0  0  0  0  0  0  0  0  0  0  0  0
   -5.8840   -6.4952    0.0000 O   0  0  0  0  0  0  0  0  0  0  0  0
   -4.5849   -7.2452    0.0000 C   0  0  0  0  0  0  0  0  0  0  0  0
   -3.2859   -6.4952    0.0000 C   0  0  0  0  0  0  0  0  0  0  0  0
  1  2  2  0
  2  3  1  0
  2  4  1  0
  4  5  1  1
  5  6  1  0
  6  7  1  0
  4  8  1  0
  8  9  1  0
  9 10  1  0
 10 11  1  1
 10 12  1  0
 12 13  1  0
 13 14  1  1
 14 15  1  0
 15 16  1  0
 16 17  1  0
 16 18  2  0
 18 19  1  0
 19 20  1  0
 20 21  1  0
 21 22  1  0
 22 23  2  0
 22 24  1  0
 24 25  1  0
 25 26  1  0
 21 27  1  0
 27 28  2  0
 27 29  1  0
 29 30  1  0
 30 31  1  0
 27 32  1  0
 32 33  1  0
 33 34  1  0
 13 10  1  0
M  END
$$$$
9-C
     RDKit          2D

 34 34  0  0  0  0  0  0  0  0999 V2000
    2.2814   -3.7077    0.0000 C   0  0  0  0  0  0  0  0  0  0  0  0
    3.7586   -3.4472    0.0000 C   0  0  0  0  0  0  0  0  0  0  0  0
    4.7228   -4.5963    0.0000 C   0  0  0  0  0  0  0  0  0  0  0  0
    4.2716   -2.0377    0.0000 C   0  0  0  0  0  0  0  0  0  0  0  0
    5.7488   -1.7772    0.0000 C   0  0  0  0  0  0  0  0  0  0  0  0
    6.7130   -2.9263    0.0000 C   0  0  0  0  0  0  0  0  0  0  0  0
    8.1902   -2.6658    0.0000 O   0  0  0  0  0  0  0  0  0  0  0  0
    3.3074   -0.8886    0.0000 C   0  0  0  0  0  0  0  0  0  0  0  0
    1.8302   -1.1491    0.0000 C   0  0  0  0  0  0  0  0  0  0  0  0
    0.8660    0.0000    0.0000 C   0  0  0  0  0  0  0  0  0  0  0  0
    1.8302    1.1491    0.0000 C   0  0  0  0  0  0  0  0  0  0  0  0
   -0.4330    0.7500    0.0000 O   0  0  0  0  0  0  0  0  0  0  0  0
   -0.4330   -0.7500    0.0000 C   0  0  0  0  0  0  0  0  0  0  0  0
   -1.1830   -2.0490    0.0000 C   0  0  0  0  0  0  0  0  0  0  0  0
   -2.6830   -2.0490    0.0000 C   0  0  0  0  0  0  0  0  0  0  0  0
   -3.4330   -3.3481    0.0000 C   0  0  0  0  0  0  0  0  0  0  0  0
   -2.6830   -4.6471    0.0000 C   0  0  0  0  0  0  0  0  0  0  0  0
   -4.9330   -3.3481    0.0000 C   0  0  0  0  0  0  0  0  0  0  0  0
   -5.6830   -4.6471    0.0000 C   0  0  0  0  0  0  0  0  0  0  0  0
   -7.1830   -4.6471    0.0000 C   0  0  0  0  0  0  0  0  0  0  0  0
   -7.9330   -5.9462    0.0000 C   0  0  0  0  0  0  0  0  0  0  0  0
   -9.4330   -5.9462    0.0000 C   0  0  0  0  0  0  0  0  0  0  0  0
  -10.1830   -4.6471    0.0000 O   0  0  0  0  0  0  0  0  0  0  0  0
  -10.1830   -7.2452    0.0000 O   0  0  0  0  0  0  0  0  0  0  0  0
  -11.6830   -7.2452    0.0000 C   0  0  0  0  0  0  0  0  0  0  0  0
  -12.4330   -8.5442    0.0000 C   0  0  0  0  0  0  0  0  0  0  0  0
   -7.1830   -7.2452    0.0000 P   0  0  0  0  0  0  0  0  0  0  0  0
   -6.4330   -8.5442    0.0000 O   0  0  0  0  0  0  0  0  0  0  0  0
   -8.4821   -7.9952    0.0000 O   0  0  0  0  0  0  0  0  0  0  0  0
   -8.4821   -9.4952    0.0000 C   0  0  0  0  0  0  0  0  0  0  0  0
   -9.7811  -10.2452    0.0000 C   0  0  0  0  0  0  0  0  0  0  0  0
   -5.8840   -6.4952    0.0000 O   0  0  0  0  0  0  0  0  0  0  0  0
   -4.5849   -7.2452    0.0000 C   0  0  0  0  0  0  0  0  0  0  0  0
   -3.2859   -6.4952    0.0000 C   0  0  0  0  0  0  0  0  0  0  0  0
  1  2  2  0
  2  3  1  0
  2  4  1  0
  4  5  1  1
  5  6  1  0
  6  7  1  0
  4  8  1  0
  8  9  1  0
  9 10  1  0
 10 11  1  6
 10 12  1  0
 12 13  1  0
 13 14  1  6
 14 15  1  0
 15 16  1  0
 16 17  1  0
 16 18  2  0
 18 19  1  0
 19 20  1  0
 20 21  1  0
 21 22  1  0
 22 23  2  0
 22 24  1  0
 24 25  1  0
 25 26  1  0
 21 27  1  0
 27 28  2  0
 27 29  1  0
 29 30  1  0
 30 31  1  0
 27 32  1  0
 32 33  1  0
 33 34  1  0
 13 10  1  0
M  END
$$$$
SI-5-B
     RDKit          2D

 34 34  0  0  0  0  0  0  0  0999 V2000
    2.2814   -3.7077    0.0000 C   0  0  0  0  0  0  0  0  0  0  0  0
    3.7586   -3.4472    0.0000 C   0  0  0  0  0  0  0  0  0  0  0  0
    4.7228   -4.5963    0.0000 C   0  0  0  0  0  0  0  0  0  0  0  0
    4.2716   -2.0377    0.0000 C   0  0  0  0  0  0  0  0  0  0  0  0
    5.7488   -1.7772    0.0000 C   0  0  0  0  0  0  0  0  0  0  0  0
    6.7130   -2.9263    0.0000 C   0  0  0  0  0  0  0  0  0  0  0  0
    8.1902   -2.6658    0.0000 O   0  0  0  0  0  0  0  0  0  0  0  0
    3.3074   -0.8886    0.0000 C   0  0  0  0  0  0  0  0  0  0  0  0
    1.8302   -1.1491    0.0000 C   0  0  0  0  0  0  0  0  0  0  0  0
    0.8660    0.0000    0.0000 C   0  0  0  0  0  0  0  0  0  0  0  0
    1.8302    1.1491    0.0000 C   0  0  0  0  0  0  0  0  0  0  0  0
   -0.4330    0.7500    0.0000 O   0  0  0  0  0  0  0  0  0  0  0  0
   -0.4330   -0.7500    0.0000 C   0  0  0  0  0  0  0  0  0  0  0  0
   -1.1830   -2.0490    0.0000 C   0  0  0  0  0  0  0  0  0  0  0  0
   -2.6830   -2.0490    0.0000 C   0  0  0  0  0  0  0  0  0  0  0  0
   -3.4330   -3.3481    0.0000 C   0  0  0  0  0  0  0  0  0  0  0  0
   -2.6830   -4.6471    0.0000 C   0  0  0  0  0  0  0  0  0  0  0  0
   -4.9330   -3.3481    0.0000 C   0  0  0  0  0  0  0  0  0  0  0  0
   -5.6830   -4.6471    0.0000 C   0  0  0  0  0  0  0  0  0  0  0  0
   -7.1830   -4.6471    0.0000 C   0  0  0  0  0  0  0  0  0  0  0  0
   -7.9330   -5.9462    0.0000 C   0  0  0  0  0  0  0  0  0  0  0  0
   -9.4330   -5.9462    0.0000 C   0  0  0  0  0  0  0  0  0  0  0  0
  -10.1830   -4.6471    0.0000 O   0  0  0  0  0  0  0  0  0  0  0  0
  -10.1830   -7.2452    0.0000 O   0  0  0  0  0  0  0  0  0  0  0  0
  -11.6830   -7.2452    0.0000 C   0  0  0  0  0  0  0  0  0  0  0  0
  -12.4330   -8.5442    0.0000 C   0  0  0  0  0  0  0  0  0  0  0  0
   -7.1830   -7.2452    0.0000 P   0  0  0  0  0  0  0  0  0  0  0  0
   -6.4330   -8.5442    0.0000 O   0  0  0  0  0  0  0  0  0  0  0  0
   -8.4821   -7.9952    0.0000 O   0  0  0  0  0  0  0  0  0  0  0  0
   -8.4821   -9.4952    0.0000 C   0  0  0  0  0  0  0  0  0  0  0  0
   -9.7811  -10.2452    0.0000 C   0  0  0  0  0  0  0  0  0  0  0  0
   -5.8840   -6.4952    0.0000 O   0  0  0  0  0  0  0  0  0  0  0  0
   -4.5849   -7.2452    0.0000 C   0  0  0  0  0  0  0  0  0  0  0  0
   -3.2859   -6.4952    0.0000 C   0  0  0  0  0  0  0  0  0  0  0  0
  1  2  2  0
  2  3  1  0
  2  4  1  0
  4  5  1  1
  5  6  1  0
  6  7  2  0
  4  8  1  0
  8  9  1  0
  9 10  1  0
 10 11  1  1
 10 12  1  0
 12 13  1  0
 13 14  1  1
 14 15  1  0
 15 16  1  0
 16 17  1  0
 16 18  2  0
 18 19  1  0
 19 20  1  0
 20 21  1  0
 21 22  1  0
 22 23  2  0
 22 24  1  0
 24 25  1  0
 25 26  1  0
 21 27  1  0
 27 28  2  0
 27 29  1  0
 29 30  1  0
 30 31  1  0
 27 32  1  0
 32 33  1  0
 33 34  1  0
 13 10  1  0
M  END
$$$$
SI-5-C
     RDKit          2D

 34 34  0  0  0  0  0  0  0  0999 V2000
    2.2814   -3.7077    0.0000 C   0  0  0  0  0  0  0  0  0  0  0  0
    3.7586   -3.4472    0.0000 C   0  0  0  0  0  0  0  0  0  0  0  0
    4.7228   -4.5963    0.0000 C   0  0  0  0  0  0  0  0  0  0  0  0
    4.2716   -2.0377    0.0000 C   0  0  0  0  0  0  0  0  0  0  0  0
    5.7488   -1.7772    0.0000 C   0  0  0  0  0  0  0  0  0  0  0  0
    6.7130   -2.9263    0.0000 C   0  0  0  0  0  0  0  0  0  0  0  0
    8.1902   -2.6658    0.0000 O   0  0  0  0  0  0  0  0  0  0  0  0
    3.3074   -0.8886    0.0000 C   0  0  0  0  0  0  0  0  0  0  0  0
    1.8302   -1.1491    0.0000 C   0  0  0  0  0  0  0  0  0  0  0  0
    0.8660    0.0000    0.0000 C   0  0  0  0  0  0  0  0  0  0  0  0
    1.8302    1.1491    0.0000 C   0  0  0  0  0  0  0  0  0  0  0  0
   -0.4330    0.7500    0.0000 O   0  0  0  0  0  0  0  0  0  0  0  0
   -0.4330   -0.7500    0.0000 C   0  0  0  0  0  0  0  0  0  0  0  0
   -1.1830   -2.0490    0.0000 C   0  0  0  0  0  0  0  0  0  0  0  0
   -2.6830   -2.0490    0.0000 C   0  0  0  0  0  0  0  0  0  0  0  0
   -3.4330   -3.3481    0.0000 C   0  0  0  0  0  0  0  0  0  0  0  0
   -2.6830   -4.6471    0.0000 C   0  0  0  0  0  0  0  0  0  0  0  0
   -4.9330   -3.3481    0.0000 C   0  0  0  0  0  0  0  0  0  0  0  0
   -5.6830   -4.6471    0.0000 C   0  0  0  0  0  0  0  0  0  0  0  0
   -7.1830   -4.6471    0.0000 C   0  0  0  0  0  0  0  0  0  0  0  0
   -7.9330   -5.9462    0.0000 C   0  0  0  0  0  0  0  0  0  0  0  0
   -9.4330   -5.9462    0.0000 C   0  0  0  0  0  0  0  0  0  0  0  0
  -10.1830   -4.6471    0.0000 O   0  0  0  0  0  0  0  0  0  0  0  0
  -10.1830   -7.2452    0.0000 O   0  0  0  0  0  0  0  0  0  0  0  0
  -11.6830   -7.2452    0.0000 C   0  0  0  0  0  0  0  0  0  0  0  0
  -12.4330   -8.5442    0.0000 C   0  0  0  0  0  0  0  0  0  0  0  0
   -7.1830   -7.2452    0.0000 P   0  0  0  0  0  0  0  0  0  0  0  0
   -6.4330   -8.5442    0.0000 O   0  0  0  0  0  0  0  0  0  0  0  0
   -8.4821   -7.9952    0.0000 O   0  0  0  0  0  0  0  0  0  0  0  0
   -8.4821   -9.4952    0.0000 C   0  0  0  0  0  0  0  0  0  0  0  0
   -9.7811  -10.2452    0.0000 C   0  0  0  0  0  0  0  0  0  0  0  0
   -5.8840   -6.4952    0.0000 O   0  0  0  0  0  0  0  0  0  0  0  0
   -4.5849   -7.2452    0.0000 C   0  0  0  0  0  0  0  0  0  0  0  0
   -3.2859   -6.4952    0.0000 C   0  0  0  0  0  0  0  0  0  0  0  0
  1  2  2  0
  2  3  1  0
  2  4  1  0
  4  5  1  1
  5  6  1  0
  6  7  2  0
  4  8  1  0
  8  9  1  0
  9 10  1  0
 10 11  1  6
 10 12  1  0
 12 13  1  0
 13 14  1  6
 14 15  1  0
 15 16  1  0
 16 17  1  0
 16 18  2  0
 18 19  1  0
 19 20  1  0
 20 21  1  0
 21 22  1  0
 22 23  2  0
 22 24  1  0
 24 25  1  0
 25 26  1  0
 21 27  1  0
 27 28  2  0
 27 29  1  0
 29 30  1  0
 30 31  1  0
 27 32  1  0
 32 33  1  0
 33 34  1  0
 13 10  1  0
M  END
$$$$
23
     RDKit          2D

 67 66  0  0  0  0  0  0  0  0999 V2000
   -9.7500   -9.0933    0.0000 C   0  0  0  0  0  0  0  0  0  0  0  0
  -11.2500   -9.0933    0.0000 C   0  0  0  0  0  0  0  0  0  0  0  0
  -12.0000  -10.3923    0.0000 C   0  0  0  0  0  0  0  0  0  0  0  0
  -12.0000   -7.7942    0.0000 C   0  0  0  0  0  0  0  0  0  0  0  0
  -11.2500   -6.4952    0.0000 C   0  0  0  0  0  0  0  0  0  0  0  0
   -9.7500   -6.4952    0.0000 C   0  0  0  0  0  0  0  0  0  0  0  0
   -9.0000   -5.1962    0.0000 O   0  0  0  0  0  0  0  0  0  0  0  0
   -7.5000   -5.1962    0.0000 C   0  0  0  0  0  0  0  0  0  0  0  0
   -6.7500   -3.8971    0.0000 O   0  0  0  0  0  0  0  0  0  0  0  0
   -5.2500   -3.8971    0.0000 C   0  0  0  0  0  0  0  0  0  0  0  0
   -4.5000   -2.5981    0.0000 C   0  0  0  0  0  0  0  0  0  0  0  0
   -3.0000   -2.5981    0.0000 C   0  0  0  0  0  0  0  0  0  0  0  0
   -2.2500   -1.2990    0.0000 C   0  0  0  0  0  0  0  0  0  0  0  0
   -0.7500   -1.2990    0.0000 C   0  0  0  0  0  0  0  0  0  0  0  0
    0.0000    0.0000    0.0000 C   0  0  0  0  0  0  0  0  0  0  0  0
   -0.7500    1.2990    0.0000 C   0  0  0  0  0  0  0  0  0  0  0  0
    1.5000    0.0000    0.0000 C   0  0  0  0  0  0  0  0  0  0  0  0
    2.2500    1.2990    0.0000 C   0  0  0  0  0  0  0  0  0  0  0  0
    3.7500    1.2990    0.0000 C   0  0  0  0  0  0  0  0  0  0  0  0
    4.5000    2.5981    0.0000 C   0  0  0  0  0  0  0  0  0  0  0  0
    3.7500    3.8971    0.0000 C   0  0  0  0  0  0  0  0  0  0  0  0
    6.0000    2.5981    0.0000 C   0  0  0  0  0  0  0  0  0  0  0  0
    6.7500    3.8971    0.0000 C   0  0  0  0  0  0  0  0  0  0  0  0
    8.2500    3.8971    0.0000 C   0  0  0  0  0  0  0  0  0  0  0  0
    9.0000    5.1962    0.0000 C   0  0  0  0  0  0  0  0  0  0  0  0
   10.5000    5.1962    0.0000 C   0  0  0  0  0  0  0  0  0  0  0  0
   11.2500    3.8971    0.0000 O   0  0  0  0  0  0  0  0  0  0  0  0
   11.2500    6.4952    0.0000 O   0  0  0  0  0  0  0  0  0  0  0  0
   12.7500    6.4952    0.0000 C   0  0  0  0  0  0  0  0  0  0  0  0
   13.5000    7.7942    0.0000 C   0  0  0  0  0  0  0  0  0  0  0  0
    8.2500    6.4952    0.0000 P   0  0  0  0  0  0  0  0  0  0  0  0
    7.5000    7.7942    0.0000 O   0  0  0  0  0  0  0  0  0  0  0  0
    9.5490    7.2452    0.0000 O   0  0  0  0  0  0  0  0  0  0  0  0
    9.5490    8.7452    0.0000 C   0  0  0  0  0  0  0  0  0  0  0  0
   10.8481    9.4952    0.0000 C   0  0  0  0  0  0  0  0  0  0  0  0
    6.9510    5.7452    0.0000 O   0  0  0  0  0  0  0  0  0  0  0  0
    5.6519    6.4952    0.0000 C   0  0  0  0  0  0  0  0  0  0  0  0
    4.3529    5.7452    0.0000 C   0  0  0  0  0  0  0  0  0  0  0  0
   -2.2500   -3.8971    0.0000 C   0  0  0  0  0  0  0  0  0  0  0  0
   -0.7500   -3.8971    0.0000 C   0  0  0  0  0  0  0  0  0  0  0  0
   -3.0000   -5.1962    0.0000 C   0  0  0  0  0  0  0  0  0  0  0  0
  -13.5000   -7.7942    0.0000 C   0  0  0  0  0  0  0  0  0  0  0  0
  -14.2500   -9.0933    0.0000 C   0  0  0  0  0  0  0  0  0  0  0  0
  -15.7500   -9.0933    0.0000 C   0  0  0  0  0  0  0  0  0  0  0  0
  -16.5000   -7.7942    0.0000 C   0  0  0  0  0  0  0  0  0  0  0  0
  -16.5000  -10.3923    0.0000 C   0  0  0  0  0  0  0  0  0  0  0  0
  -18.0000  -10.3923    0.0000 C   0  0  0  0  0  0  0  0  0  0  0  0
  -18.7500  -11.6913    0.0000 C   0  0  0  0  0  0  0  0  0  0  0  0
  -20.2500  -11.6913    0.0000 C   0  0  0  0  0  0  0  0  0  0  0  0
  -21.0000  -10.3923    0.0000 C   0  0  0  0  0  0  0  0  0  0  0  0
  -21.0000  -12.9904    0.0000 C   0  0  0  0  0  0  0  0  0  0  0  0
  -22.5000  -12.9904    0.0000 C   0  0  0  0  0  0  0  0  0  0  0  0
  -23.2500  -14.2894    0.0000 C   0  0  0  0  0  0  0  0  0  0  0  0
  -24.7500  -14.2894    0.0000 C   0  0  0  0  0  0  0  0  0  0  0  0
  -25.5000  -15.5885    0.0000 C   0  0  0  0  0  0  0  0  0  0  0  0
  -24.7500  -16.8875    0.0000 O   0  0  0  0  0  0  0  0  0  0  0  0
  -27.0000  -15.5885    0.0000 O   0  0  0  0  0  0  0  0  0  0  0  0
  -27.7500  -16.8875    0.0000 C   0  0  0  0  0  0  0  0  0  0  0  0
  -29.2500  -16.8875    0.0000 C   0  0  0  0  0  0  0  0  0  0  0  0
  -25.5000  -12.9904    0.0000 P   0  0  0  0  0  0  0  0  0  0  0  0
  -26.2500  -11.6913    0.0000 O   0  0  0  0  0  0  0  0  0  0  0  0
  -26.7990  -13.7404    0.0000 O   0  0  0  0  0  0  0  0  0  0  0  0
  -28.0981  -12.9904    0.0000 C   0  0  0  0  0  0  0  0  0  0  0  0
  -29.3971  -13.7404    0.0000 C   0  0  0  0  0  0  0  0  0  0  0  0
  -24.2010  -12.2404    0.0000 O   0  0  0  0  0  0  0  0  0  0  0  0
  -24.2010  -10.7404    0.0000 C   0  0  0  0  0  0  0  0  0  0  0  0
  -22.9019   -9.9904    0.0000 C   0  0  0  0  0  0  0  0  0  0  0  0
  1  2  2  0
  2  3  1  0
  2  4  1  0
  4  5  1  1
  5  6  1  0
  6  7  1  0
  7  8  1  0
  8  9  1  0
  9 10  1  0
 10 11  1  0
 12 11  1  6
 12 13  1  0
 13 14  1  0
 14 15  1  0
 15 16  1  0
 15 17  2  0
 17 18  1  0
 18 19  1  0
 19 20  1  0
 20 21  1  0
 20 22  2  0
 22 23  1  0
 23 24  1  0
 24 25  1  0
 25 26  1  0
 26 27  2  0
 26 28  1  0
 28 29  1  0
 29 30  1  0
 25 31  1  0
 31 32  2  0
 31 33  1  0
 33 34  1  0
 34 35  1  0
 31 36  1  0
 36 37  1  0
 37 38  1  0
 12 39  1  0
 39 40  2  0
 39 41  1  0
  4 42  1  0
 42 43  1  0
 43 44  1  0
 44 45  1  0
 44 46  2  0
 46 47  1  0
 47 48  1  0
 48 49  1  0
 49 50  1  0
 49 51  2  0
 51 52  1  0
 52 53  1  0
 53 54  1  0
 54 55  1  0
 55 56  2  0
 55 57  1  0
 57 58  1  0
 58 59  1  0
 54 60  1  0
 60 61  2  0
 60 62  1  0
 62 63  1  0
 63 64  1  0
 60 65  1  0
 65 66  1  0
 66 67  1  0
M  END
$$$$
macroester-A
     RDKit          2D

 25 26  0  0  0  0  0  0  0  0999 V2000
   -9.4876   -0.0158    0.0000 C   0  0  0  0  0  0  0  0  0  0  0  0
   -8.4673    1.0838    0.0000 C   0  0  0  0  0  0  0  0  0  0  0  0
   -8.9095    2.5171    0.0000 C   0  0  0  0  0  0  0  0  0  0  0  0
   -7.0049    0.7500    0.0000 C   0  0  0  0  0  0  0  0  0  0  0  0
   -6.3541    2.1015    0.0000 C   0  0  0  0  0  0  0  0  0  0  0  0
   -5.1814    3.0367    0.0000 C   0  0  0  0  0  0  0  0  0  0  0  0
   -3.7190    3.3705    0.0000 C   0  0  0  0  0  0  0  0  0  0  0  0
   -3.7190    4.8705    0.0000 C   0  0  0  0  0  0  0  0  0  0  0  0
   -5.0180    5.6205    0.0000 O   0  0  0  0  0  0  0  0  0  0  0  0
   -2.4199    5.6205    0.0000 O   0  0  0  0  0  0  0  0  0  0  0  0
   -2.4199    7.1205    0.0000 C   0  0  0  0  0  0  0  0  0  0  0  0
   -1.1209    7.8705    0.0000 C   0  0  0  0  0  0  0  0  0  0  0  0
   -2.2566    3.0367    0.0000 C   0  0  0  0  0  0  0  0  0  0  0  0
   -1.0838    2.1015    0.0000 C   0  0  0  0  0  0  0  0  0  0  0  0
   -0.4330    0.7500    0.0000 C   0  0  0  0  0  0  0  0  0  0  0  0
    0.8660    0.0000    0.0000 O   0  0  0  0  0  0  0  0  0  0  0  0
   -0.4330   -0.7500    0.0000 C   0  0  0  0  0  0  0  0  0  0  0  0
    0.6666   -1.7703    0.0000 C   0  0  0  0  0  0  0  0  0  0  0  0
   -1.0838   -2.1015    0.0000 C   0  0  0  0  0  0  0  0  0  0  0  0
   -2.2566   -3.0367    0.0000 C   0  0  0  0  0  0  0  0  0  0  0  0
   -3.7190   -3.3705    0.0000 C   0  0  0  0  0  0  0  0  0  0  0  0
   -4.8917   -2.4352    0.0000 C   0  0  0  0  0  0  0  0  0  0  0  0
   -4.2409   -1.0838    0.0000 C   0  0  0  0  0  0  0  0  0  0  0  0
   -6.3541   -2.1015    0.0000 C   0  0  0  0  0  0  0  0  0  0  0  0
   -7.0049   -0.7500    0.0000 C   0  0  0  0  0  0  0  0  0  0  0  0
  1  2  2  0
  2  3  1  0
  4  2  1  6
  4  5  1  0
  5  6  1  0
  6  7  2  3
  7  8  1  0
  8  9  2  0
  8 10  1  0
 10 11  1  0
 11 12  1  0
  7 13  1  0
 13 14  1  0
 15 14  1  1
 15 16  1  0
 16 17  1  0
 17 18  1  1
 17 19  1  0
 19 20  1  0
 20 21  1  0
 21 22  2  0
 22 23  1  0
 22 24  1  0
 24 25  1  0
 25  4  1  0
 17 15  1  0
M  END
$$$$
macroester-B
     RDKit          2D

 25 26  0  0  0  0  0  0  0  0999 V2000
   -2.4199   -5.6205    0.0000 C   0  0  0  0  0  0  0  0  0  0  0  0
   -3.7190   -4.8705    0.0000 C   0  0  0  0  0  0  0  0  0  0  0  0
   -5.0180   -5.6205    0.0000 C   0  0  0  0  0  0  0  0  0  0  0  0
   -3.7190   -3.3705    0.0000 C   0  0  0  0  0  0  0  0  0  0  0  0
   -5.1814   -3.0367    0.0000 C   0  0  0  0  0  0  0  0  0  0  0  0
   -6.3541   -2.1015    0.0000 C   0  0  0  0  0  0  0  0  0  0  0  0
   -7.0049   -0.7500    0.0000 C   0  0  0  0  0  0  0  0  0  0  0  0
   -8.4673   -1.0838    0.0000 C   0  0  0  0  0  0  0  0  0  0  0  0
   -8.9095   -2.5171    0.0000 O   0  0  0  0  0  0  0  0  0  0  0  0
   -9.4876    0.0158    0.0000 O   0  0  0  0  0  0  0  0  0  0  0  0
  -10.9500   -0.3180    0.0000 C   0  0  0  0  0  0  0  0  0  0  0  0
  -11.9702    0.7816    0.0000 C   0  0  0  0  0  0  0  0  0  0  0  0
   -7.0049    0.7500    0.0000 C   0  0  0  0  0  0  0  0  0  0  0  0
   -6.3541    2.1015    0.0000 C   0  0  0  0  0  0  0  0  0  0  0  0
   -5.1814    3.0367    0.0000 C   0  0  0  0  0  0  0  0  0  0  0  0
   -3.7190    2.7029    0.0000 C   0  0  0  0  0  0  0  0  0  0  0  0
   -3.7190    1.2029    0.0000 C   0  0  0  0  0  0  0  0  0  0  0  0
   -2.2566    3.0367    0.0000 C   0  0  0  0  0  0  0  0  0  0  0  0
   -1.0838    2.1015    0.0000 C   0  0  0  0  0  0  0  0  0  0  0  0
   -0.4330    0.7500    0.0000 C   0  0  0  0  0  0  0  0  0  0  0  0
    0.8660    0.0000    0.0000 O   0  0  0  0  0  0  0  0  0  0  0  0
   -0.4330   -0.7500    0.0000 C   0  0  0  0  0  0  0  0  0  0  0  0
    0.6666   -1.7703    0.0000 C   0  0  0  0  0  0  0  0  0  0  0  0
   -1.0838   -2.1015    0.0000 C   0  0  0  0  0  0  0  0  0  0  0  0
   -2.2566   -3.0367    0.0000 C   0  0  0  0  0  0  0  0  0  0  0  0
  1  2  2  0
  2  3  1  0
  4  2  1  6
  4  5  1  0
  5  6  1  0
  6  7  2  3
  7  8  1  0
  8  9  2  0
  8 10  1  0
 10 11  1  0
 11 12  1  0
  7 13  1  0
 13 14  1  0
 14 15  1  0
 15 16  2  0
 16 17  1  0
 16 18  1  0
 18 19  1  0
 20 19  1  1
 20 21  1  0
 21 22  1  0
 22 23  1  1
 22 24  1  0
 24 25  1  0
 25  4  1  0
 22 20  1  0
M  END
$$$$
macroester-C
     RDKit          2D

 25 26  0  0  0  0  0  0  0  0999 V2000
   -2.4199   -5.6205    0.0000 C   0  0  0  0  0  0  0  0  0  0  0  0
   -3.7190   -4.8705    0.0000 C   0  0  0  0  0  0  0  0  0  0  0  0
   -5.0180   -5.6205    0.0000 C   0  0  0  0  0  0  0  0  0  0  0  0
   -3.7190   -3.3705    0.0000 C   0  0  0  0  0  0  0  0  0  0  0  0
   -5.1814   -3.0367    0.0000 C   0  0  0  0  0  0  0  0  0  0  0  0
   -6.3541   -2.1015    0.0000 C   0  0  0  0  0  0  0  0  0  0  0  0
   -7.0049   -0.7500    0.0000 C   0  0  0  0  0  0  0  0  0  0  0  0
   -8.4673   -1.0838    0.0000 C   0  0  0  0  0  0  0  0  0  0  0  0
   -8.9095   -2.5171    0.0000 O   0  0  0  0  0  0  0  0  0  0  0  0
   -9.4876    0.0158    0.0000 O   0  0  0  0  0  0  0  0  0  0  0  0
  -10.9500   -0.3180    0.0000 C   0  0  0  0  0  0  0  0  0  0  0  0
  -11.9702    0.7816    0.0000 C   0  0  0  0  0  0  0  0  0  0  0  0
   -7.0049    0.7500    0.0000 C   0  0  0  0  0  0  0  0  0  0  0  0
   -6.3541    2.1015    0.0000 C   0  0  0  0  0  0  0  0  0  0  0  0
   -5.1814    3.0367    0.0000 C   0  0  0  0  0  0  0  0  0  0  0  0
   -3.7190    2.7029    0.0000 C   0  0  0  0  0  0  0  0  0  0  0  0
   -3.7190    1.2029    0.0000 C   0  0  0  0  0  0  0  0  0  0  0  0
   -2.2566    3.0367    0.0000 C   0  0  0  0  0  0  0  0  0  0  0  0
   -1.0838    2.1015    0.0000 C   0  0  0  0  0  0  0  0  0  0  0  0
   -0.4330    0.7500    0.0000 C   0  0  0  0  0  0  0  0  0  0  0  0
    0.8660    0.0000    0.0000 O   0  0  0  0  0  0  0  0  0  0  0  0
   -0.4330   -0.7500    0.0000 C   0  0  0  0  0  0  0  0  0  0  0  0
    0.6666   -1.7703    0.0000 C   0  0  0  0  0  0  0  0  0  0  0  0
   -1.0838   -2.1015    0.0000 C   0  0  0  0  0  0  0  0  0  0  0  0
   -2.2566   -3.0367    0.0000 C   0  0  0  0  0  0  0  0  0  0  0  0
  1  2  2  0
  2  3  1  0
  4  2  1  6
  4  5  1  0
  5  6  1  0
  6  7  2  3
  7  8  1  0
  8  9  2  0
  8 10  1  0
 10 11  1  0
 11 12  1  0
  7 13  1  0
 13 14  1  0
 14 15  1  0
 15 16  2  0
 16 17  1  0
 16 18  1  0
 18 19  1  0
 20 19  1  6
 20 21  1  0
 21 22  1  0
 22 23  1  6
 22 24  1  0
 24 25  1  0
 25  4  1  0
 22 20  1  0
M  END
$$$$
SI-7-representative
     RDKit          2D

 50 52  0  0  0  0  0  0  0  0999 V2000
   -7.3784    9.0377    0.0000 C   0  0  0  0  0  0  0  0  0  0  0  0
   -6.1715    8.1470    0.0000 C   0  0  0  0  0  0  0  0  0  0  0  0
   -4.7967    8.7468    0.0000 C   0  0  0  0  0  0  0  0  0  0  0  0
   -6.3394    6.6564    0.0000 C   0  0  0  0  0  0  0  0  0  0  0  0
   -4.8771    6.3227    0.0000 C   0  0  0  0  0  0  0  0  0  0  0  0
   -3.5256    5.6718    0.0000 C   0  0  0  0  0  0  0  0  0  0  0  0
   -2.3529    4.7366    0.0000 C   0  0  0  0  0  0  0  0  0  0  0  0
   -1.2922    5.7973    0.0000 C   0  0  0  0  0  0  0  0  0  0  0  0
   -1.6804    7.2461    0.0000 O   0  0  0  0  0  0  0  0  0  0  0  0
    0.1567    5.4090    0.0000 O   0  0  0  0  0  0  0  0  0  0  0  0
    1.2174    6.4697    0.0000 C   0  0  0  0  0  0  0  0  0  0  0  0
    2.6662    6.0815    0.0000 C   0  0  0  0  0  0  0  0  0  0  0  0
   -1.4176    3.5638    0.0000 C   0  0  0  0  0  0  0  0  0  0  0  0
   -0.7668    2.2124    0.0000 C   0  0  0  0  0  0  0  0  0  0  0  0
   -0.4330    0.7500    0.0000 C   0  0  0  0  0  0  0  0  0  0  0  0
    0.8660    0.0000    0.0000 O   0  0  0  0  0  0  0  0  0  0  0  0
   -0.4330   -0.7500    0.0000 C   0  0  0  0  0  0  0  0  0  0  0  0
    0.7739   -1.6407    0.0000 C   0  0  0  0  0  0  0  0  0  0  0  0
   -0.7668   -2.2124    0.0000 C   0  0  0  0  0  0  0  0  0  0  0  0
   -1.4176   -3.5638    0.0000 C   0  0  0  0  0  0  0  0  0  0  0  0
   -2.3529   -4.7366    0.0000 C   0  0  0  0  0  0  0  0  0  0  0  0
   -3.7043   -5.3874    0.0000 C   0  0  0  0  0  0  0  0  0  0  0  0
   -4.5024   -4.1173    0.0000 C   0  0  0  0  0  0  0  0  0  0  0  0
   -4.8771   -6.3227    0.0000 C   0  0  0  0  0  0  0  0  0  0  0  0
   -6.3394   -6.6564    0.0000 C   0  0  0  0  0  0  0  0  0  0  0  0
   -7.8394   -6.6564    0.0000 C   0  0  0  0  0  0  0  0  0  0  0  0
   -8.0074   -8.1470    0.0000 C   0  0  0  0  0  0  0  0  0  0  0  0
   -6.8005   -9.0377    0.0000 C   0  0  0  0  0  0  0  0  0  0  0  0
   -9.3822   -8.7468    0.0000 C   0  0  0  0  0  0  0  0  0  0  0  0
   -9.3018   -6.3227    0.0000 C   0  0  0  0  0  0  0  0  0  0  0  0
  -10.6533   -5.6718    0.0000 C   0  0  0  0  0  0  0  0  0  0  0  0
  -11.8260   -4.7366    0.0000 C   0  0  0  0  0  0  0  0  0  0  0  0
  -12.8867   -5.7973    0.0000 C   0  0  0  0  0  0  0  0  0  0  0  0
  -12.4985   -7.2461    0.0000 O   0  0  0  0  0  0  0  0  0  0  0  0
  -14.3356   -5.4090    0.0000 O   0  0  0  0  0  0  0  0  0  0  0  0
  -15.3962   -6.4697    0.0000 C   0  0  0  0  0  0  0  0  0  0  0  0
  -16.8451   -6.0815    0.0000 C   0  0  0  0  0  0  0  0  0  0  0  0
  -12.7613   -3.5638    0.0000 C   0  0  0  0  0  0  0  0  0  0  0  0
  -13.4121   -2.2124    0.0000 C   0  0  0  0  0  0  0  0  0  0  0  0
  -13.7459   -0.7500    0.0000 C   0  0  0  0  0  0  0  0  0  0  0  0
  -15.0449    0.0000    0.0000 O   0  0  0  0  0  0  0  0  0  0  0  0
  -13.7459    0.7500    0.0000 C   0  0  0  0  0  0  0  0  0  0  0  0
  -14.9528    1.6407    0.0000 C   0  0  0  0  0  0  0  0  0  0  0  0
  -13.4121    2.2124    0.0000 C   0  0  0  0  0  0  0  0  0  0  0  0
  -12.7613    3.5638    0.0000 C   0  0  0  0  0  0  0  0  0  0  0  0
  -11.8260    4.7366    0.0000 C   0  0  0  0  0  0  0  0  0  0  0  0
  -10.4746    5.3874    0.0000 C   0  0  0  0  0  0  0  0  0  0  0  0
   -9.6765    4.1173    0.0000 C   0  0  0  0  0  0  0  0  0  0  0  0
   -9.3018    6.3227    0.0000 C   0  0  0  0  0  0  0  0  0  0  0  0
   -7.8394    6.6564    0.0000 C   0  0  0  0  0  0  0  0  0  0  0  0
  1  2  2  0
  2  3  1  0
  4  2  1  6
  4  5  1  0
  5  6  1  0
  6  7  2  3
  7  8  1  0
  8  9  2  0
  8 10  1  0
 10 11  1  0
 11 12  1  0
  7 13  1  0
 13 14  1  0
 15 14  1  1
 15 16  1  0
 16 17  1  0
 17 18  1  1
 17 19  1  0
 19 20  1  0
 20 21  1  0
 21 22  2  0
 22 23  1  0
 22 24  1  0
 24 25  1  0
 25 26  1  0
 26 27  1  6
 27 28  2  0
 27 29  1  0
 26 30  1  0
 30 31  1  0
 31 32  2  3
 32 33  1  0
 33 34  2  0
 33 35  1  0
 35 36  1  0
 36 37  1  0
 32 38  1  0
 38 39  1  0
 40 39  1  1
 40 41  1  0
 41 42  1  0
 42 43  1  1
 42 44  1  0
 44 45  1  0
 45 46  1  0
 46 47  2  0
 47 48  1  0
 47 49  1  0
 49 50  1  0
 50  4  1  0
 17 15  1  0
 42 40  1  0
M  END
$$$$
1
     RDKit          2D

 22 23  0  0  0  0  0  0  0  0999 V2000
   -9.4876   -0.0158    0.0000 C   0  0  0  0  0  0  0  0  0  0  0  0
   -8.4673    1.0838    0.0000 C   0  0  0  0  0  0  0  0  0  0  0  0
   -8.9095    2.5171    0.0000 C   0  0  0  0  0  0  0  0  0  0  0  0
   -7.0049    0.7500    0.0000 C   0  0  0  0  0  0  0  0  0  0  0  0
   -6.3541    2.1015    0.0000 C   0  0  0  0  0  0  0  0  0  0  0  0
   -5.1814    3.0367    0.0000 C   0  0  0  0  0  0  0  0  0  0  0  0
   -3.7190    3.3705    0.0000 C   0  0  0  0  0  0  0  0  0  0  0  0
   -3.7190    4.8705    0.0000 C   0  0  0  0  0  0  0  0  0  0  0  0
   -2.4199    5.6205    0.0000 O   0  0  0  0  0  0  0  0  0  0  0  0
   -2.2566    3.0367    0.0000 C   0  0  0  0  0  0  0  0  0  0  0  0
   -1.0838    2.1015    0.0000 C   0  0  0  0  0  0  0  0  0  0  0  0
   -0.4330    0.7500    0.0000 C   0  0  0  0  0  0  0  0  0  0  0  0
    0.8660    0.0000    0.0000 O   0  0  0  0  0  0  0  0  0  0  0  0
   -0.4330   -0.7500    0.0000 C   0  0  0  0  0  0  0  0  0  0  0  0
    0.6666   -1.7703    0.0000 C   0  0  0  0  0  0  0  0  0  0  0  0
   -1.0838   -2.1015    0.0000 C   0  0  0  0  0  0  0  0  0  0  0  0
   -2.2566   -3.0367    0.0000 C   0  0  0  0  0  0  0  0  0  0  0  0
   -3.7190   -3.3705    0.0000 C   0  0  0  0  0  0  0  0  0  0  0  0
   -4.8917   -2.4352    0.0000 C   0  0  0  0  0  0  0  0  0  0  0  0
   -4.2409   -1.0838    0.0000 C   0  0  0  0  0  0  0  0  0  0  0  0
   -6.3541   -2.1015    0.0000 C   0  0  0  0  0  0  0  0  0  0  0  0
   -7.0049   -0.7500    0.0000 C   0  0  0  0  0  0  0  0  0  0  0  0
  1  2  2  0
  2  3  1  0
  4  2  1  6
  4  5  1  0
  5  6  1  0
  6  7  2  3
  7  8  1  0
  8  9  1  0
  7 10  1  0
 10 11  1  0
 12 11  1  1
 12 13  1  0
 13 14  1  0
 14 15  1  1
 14 16  1  0
 16 17  1  0
 17 18  1  0
 18 19  2  0
 19 20  1  0
 19 21  1  0
 21 22  1  0
 22  4  1  0
 14 12  1  0
M  END
$$$$
25-B
     RDKit          2D

 22 23  0  0  0  0  0  0  0  0999 V2000
   -2.4199   -5.6205    0.0000 C   0  0  0  0  0  0  0  0  0  0  0  0
   -3.7190   -4.8705    0.0000 C   0  0  0  0  0  0  0  0  0  0  0  0
   -5.0180   -5.6205    0.0000 C   0  0  0  0  0  0  0  0  0  0  0  0
   -3.7190   -3.3705    0.0000 C   0  0  0  0  0  0  0  0  0  0  0  0
   -5.1814   -3.0367    0.0000 C   0  0  0  0  0  0  0  0  0  0  0  0
   -6.3541   -2.1015    0.0000 C   0  0  0  0  0  0  0  0  0  0  0  0
   -7.0049   -0.7500    0.0000 C   0  0  0  0  0  0  0  0  0  0  0  0
   -8.4673   -1.0838    0.0000 C   0  0  0  0  0  0  0  0  0  0  0  0
   -9.4876    0.0158    0.0000 O   0  0  0  0  0  0  0  0  0  0  0  0
   -7.0049    0.7500    0.0000 C   0  0  0  0  0  0  0  0  0  0  0  0
   -6.3541    2.1015    0.0000 C   0  0  0  0  0  0  0  0  0  0  0  0
   -5.1814    3.0367    0.0000 C   0  0  0  0  0  0  0  0  0  0  0  0
   -3.7190    2.7029    0.0000 C   0  0  0  0  0  0  0  0  0  0  0  0
   -3.7190    1.2029    0.0000 C   0  0  0  0  0  0  0  0  0  0  0  0
   -2.2566    3.0367    0.0000 C   0  0  0  0  0  0  0  0  0  0  0  0
   -1.0838    2.1015    0.0000 C   0  0  0  0  0  0  0  0  0  0  0  0
   -0.4330    0.7500    0.0000 C   0  0  0  0  0  0  0  0  0  0  0  0
    0.8660    0.0000    0.0000 O   0  0  0  0  0  0  0  0  0  0  0  0
   -0.4330   -0.7500    0.0000 C   0  0  0  0  0  0  0  0  0  0  0  0
    0.6666   -1.7703    0.0000 C   0  0  0  0  0  0  0  0  0  0  0  0
   -1.0838   -2.1015    0.0000 C   0  0  0  0  0  0  0  0  0  0  0  0
   -2.2566   -3.0367    0.0000 C   0  0  0  0  0  0  0  0  0  0  0  0
  1  2  2  0
  2  3  1  0
  4  2  1  6
  4  5  1  0
  5  6  1  0
  6  7  2  3
  7  8  1  0
  8  9  1  0
  7 10  1  0
 10 11  1  0
 11 12  1  0
 12 13  2  0
 13 14  1  0
 13 15  1  0
 15 16  1  0
 17 16  1  1
 17 18  1  0
 18 19  1  0
 19 20  1  1
 19 21  1  0
 21 22  1  0
 22  4  1  0
 19 17  1  0
M  END
$$$$
25-C
     RDKit          2D

 22 23  0  0  0  0  0  0  0  0999 V2000
   -2.4199   -5.6205    0.0000 C   0  0  0  0  0  0  0  0  0  0  0  0
   -3.7190   -4.8705    0.0000 C   0  0  0  0  0  0  0  0  0  0  0  0
   -5.0180   -5.6205    0.0000 C   0  0  0  0  0  0  0  0  0  0  0  0
   -3.7190   -3.3705    0.0000 C   0  0  0  0  0  0  0  0  0  0  0  0
   -5.1814   -3.0367    0.0000 C   0  0  0  0  0  0  0  0  0  0  0  0
   -6.3541   -2.1015    0.0000 C   0  0  0  0  0  0  0  0  0  0  0  0
   -7.0049   -0.7500    0.0000 C   0  0  0  0  0  0  0  0  0  0  0  0
   -8.4673   -1.0838    0.0000 C   0  0  0  0  0  0  0  0  0  0  0  0
   -9.4876    0.0158    0.0000 O   0  0  0  0  0  0  0  0  0  0  0  0
   -7.0049    0.7500    0.0000 C   0  0  0  0  0  0  0  0  0  0  0  0
   -6.3541    2.1015    0.0000 C   0  0  0  0  0  0  0  0  0  0  0  0
   -5.1814    3.0367    0.0000 C   0  0  0  0  0  0  0  0  0  0  0  0
   -3.7190    2.7029    0.0000 C   0  0  0  0  0  0  0  0  0  0  0  0
   -3.7190    1.2029    0.0000 C   0  0  0  0  0  0  0  0  0  0  0  0
   -2.2566    3.0367    0.0000 C   0  0  0  0  0  0  0  0  0  0  0  0
   -1.0838    2.1015    0.0000 C   0  0  0  0  0  0  0  0  0  0  0  0
   -0.4330    0.7500    0.0000 C   0  0  0  0  0  0  0  0  0  0  0  0
    0.8660    0.0000    0.0000 O   0  0  0  0  0  0  0  0  0  0  0  0
   -0.4330   -0.7500    0.0000 C   0  0  0  0  0  0  0  0  0  0  0  0
    0.6666   -1.7703    0.0000 C   0  0  0  0  0  0  0  0  0  0  0  0
   -1.0838   -2.1015    0.0000 C   0  0  0  0  0  0  0  0  0  0  0  0
   -2.2566   -3.0367    0.0000 C   0  0  0  0  0  0  0  0  0  0  0  0
  1  2  2  0
  2  3  1  0
  4  2  1  6
  4  5  1  0
  5  6  1  0
  6  7  2  3
  7  8  1  0
  8  9  1  0
  7 10  1  0
 10 11  1  0
 11 12  1  0
 12 13  2  0
 13 14  1  0
 13 15  1  0
 15 16  1  0
 17 16  1  6
 17 18  1  0
 18 19  1  0
 19 20  1  6
 19 21  1  0
 21 22  1  0
 22  4  1  0
 19 17  1  0
M  END
$$$$
2
     RDKit          2D

 25 26  0  0  0  0  0  0  0  0999 V2000
   -9.4876   -0.0158    0.0000 C   0  0  0  0  0  0  0  0  0  0  0  0
   -8.4673    1.0838    0.0000 C   0  0  0  0  0  0  0  0  0  0  0  0
   -8.9095    2.5171    0.0000 C   0  0  0  0  0  0  0  0  0  0  0  0
   -7.0049    0.7500    0.0000 C   0  0  0  0  0  0  0  0  0  0  0  0
   -6.3541    2.1015    0.0000 C   0  0  0  0  0  0  0  0  0  0  0  0
   -5.1814    3.0367    0.0000 C   0  0  0  0  0  0  0  0  0  0  0  0
   -3.7190    3.3705    0.0000 C   0  0  0  0  0  0  0  0  0  0  0  0
   -3.7190    4.8705    0.0000 C   0  0  0  0  0  0  0  0  0  0  0  0
   -2.4199    5.6205    0.0000 O   0  0  0  0  0  0  0  0  0  0  0  0
   -2.4199    7.1205    0.0000 C   0  0  0  0  0  0  0  0  0  0  0  0
   -1.1209    7.8705    0.0000 C   0  0  0  0  0  0  0  0  0  0  0  0
   -3.7190    7.8705    0.0000 O   0  0  0  0  0  0  0  0  0  0  0  0
   -2.2566    3.0367    0.0000 C   0  0  0  0  0  0  0  0  0  0  0  0
   -1.0838    2.1015    0.0000 C   0  0  0  0  0  0  0  0  0  0  0  0
   -0.4330    0.7500    0.0000 C   0  0  0  0  0  0  0  0  0  0  0  0
    0.8660    0.0000    0.0000 O   0  0  0  0  0  0  0  0  0  0  0  0
   -0.4330   -0.7500    0.0000 C   0  0  0  0  0  0  0  0  0  0  0  0
    0.6666   -1.7703    0.0000 C   0  0  0  0  0  0  0  0  0  0  0  0
   -1.0838   -2.1015    0.0000 C   0  0  0  0  0  0  0  0  0  0  0  0
   -2.2566   -3.0367    0.0000 C   0  0  0  0  0  0  0  0  0  0  0  0
   -3.7190   -3.3705    0.0000 C   0  0  0  0  0  0  0  0  0  0  0  0
   -4.8917   -2.4352    0.0000 C   0  0  0  0  0  0  0  0  0  0  0  0
   -4.2409   -1.0838    0.0000 C   0  0  0  0  0  0  0  0  0  0  0  0
   -6.3541   -2.1015    0.0000 C   0  0  0  0  0  0  0  0  0  0  0  0
   -7.0049   -0.7500    0.0000 C   0  0  0  0  0  0  0  0  0  0  0  0
  1  2  2  0
  2  3  1  0
  4  2  1  6
  4  5  1  0
  5  6  1  0
  6  7  2  3
  7  8  1  0
  8  9  1  0
  9 10  1  0
 10 11  1  0
 10 12  2  0
  7 13  1  0
 13 14  1  0
 15 14  1  1
 15 16  1  0
 16 17  1  0
 17 18  1  1
 17 19  1  0
 19 20  1  0
 20 21  1  0
 21 22  2  0
 22 23  1  0
 22 24  1  0
 24 25  1  0
 25  4  1  0
 17 15  1  0
M  END
$$$$
3
     RDKit          2D

 22 23  0  0  0  0  0  0  0  0999 V2000
   -9.4876   -0.0158    0.0000 C   0  0  0  0  0  0  0  0  0  0  0  0
   -8.4673    1.0838    0.0000 C   0  0  0  0  0  0  0  0  0  0  0  0
   -8.9095    2.5171    0.0000 C   0  0  0  0  0  0  0  0  0  0  0  0
   -7.0049    0.7500    0.0000 C   0  0  0  0  0  0  0  0  0  0  0  0
   -6.3541    2.1015    0.0000 C   0  0  0  0  0  0  0  0  0  0  0  0
   -5.1814    3.0367    0.0000 C   0  0  0  0  0  0  0  0  0  0  0  0
   -3.7190    3.3705    0.0000 C   0  0  0  0  0  0  0  0  0  0  0  0
   -3.7190    4.8705    0.0000 C   0  0  0  0  0  0  0  0  0  0  0  0
   -2.4199    5.6205    0.0000 O   0  0  0  0  0  0  0  0  0  0  0  0
   -2.2566    3.0367    0.0000 C   0  0  0  0  0  0  0  0  0  0  0  0
   -1.0838    2.1015    0.0000 C   0  0  0  0  0  0  0  0  0  0  0  0
   -0.4330    0.7500    0.0000 C   0  0  0  0  0  0  0  0  0  0  0  0
    0.8660    0.0000    0.0000 O   0  0  0  0  0  0  0  0  0  0  0  0
   -0.4330   -0.7500    0.0000 C   0  0  0  0  0  0  0  0  0  0  0  0
    0.6666   -1.7703    0.0000 C   0  0  0  0  0  0  0  0  0  0  0  0
   -1.0838   -2.1015    0.0000 C   0  0  0  0  0  0  0  0  0  0  0  0
   -2.2566   -3.0367    0.0000 C   0  0  0  0  0  0  0  0  0  0  0  0
   -3.7190   -3.3705    0.0000 C   0  0  0  0  0  0  0  0  0  0  0  0
   -4.8917   -2.4352    0.0000 C   0  0  0  0  0  0  0  0  0  0  0  0
   -4.2409   -1.0838    0.0000 C   0  0  0  0  0  0  0  0  0  0  0  0
   -6.3541   -2.1015    0.0000 C   0  0  0  0  0  0  0  0  0  0  0  0
   -7.0049   -0.7500    0.0000 C   0  0  0  0  0  0  0  0  0  0  0  0
  1  2  2  0
  2  3  1  0
  4  2  1  6
  4  5  1  0
  5  6  1  0
  6  7  2  3
  7  8  1  0
  8  9  2  0
  7 10  1  0
 10 11  1  0
 12 11  1  1
 12 13  1  0
 13 14  1  0
 14 15  1  1
 14 16  1  0
 16 17  1  0
 17 18  1  0
 18 19  2  0
 19 20  1  0
 19 21  1  0
 21 22  1  0
 22  4  1  0
 14 12  1  0
M  END
$$$$
diagnostic-Wittig-A
     RDKit          2D

 34 34  0  0  0  0  0  0  0  0999 V2000
    7.1023   -9.4530    0.0000 C   0  0  0  0  0  0  0  0  0  0  0  0
    7.6153   -8.0435    0.0000 C   0  0  0  0  0  0  0  0  0  0  0  0
    6.6511   -6.8944    0.0000 C   0  0  0  0  0  0  0  0  0  0  0  0
    7.1641   -5.4849    0.0000 C   0  0  0  0  0  0  0  0  0  0  0  0
    6.2000   -4.3358    0.0000 C   0  0  0  0  0  0  0  0  0  0  0  0
    6.7130   -2.9263    0.0000 C   0  0  0  0  0  0  0  0  0  0  0  0
    5.7488   -1.7772    0.0000 C   0  0  0  0  0  0  0  0  0  0  0  0
    6.2618   -0.3676    0.0000 C   0  0  0  0  0  0  0  0  0  0  0  0
    4.2716   -2.0377    0.0000 C   0  0  0  0  0  0  0  0  0  0  0  0
    3.3074   -0.8886    0.0000 C   0  0  0  0  0  0  0  0  0  0  0  0
    1.8302   -1.1491    0.0000 C   0  0  0  0  0  0  0  0  0  0  0  0
    0.8660    0.0000    0.0000 C   0  0  0  0  0  0  0  0  0  0  0  0
    1.8302    1.1491    0.0000 C   0  0  0  0  0  0  0  0  0  0  0  0
   -0.4330    0.7500    0.0000 O   0  0  0  0  0  0  0  0  0  0  0  0
   -0.4330   -0.7500    0.0000 C   0  0  0  0  0  0  0  0  0  0  0  0
   -1.1830   -2.0490    0.0000 C   0  0  0  0  0  0  0  0  0  0  0  0
   -2.6830   -2.0490    0.0000 C   0  0  0  0  0  0  0  0  0  0  0  0
   -3.4330   -3.3481    0.0000 C   0  0  0  0  0  0  0  0  0  0  0  0
   -4.9330   -3.3481    0.0000 C   0  0  0  0  0  0  0  0  0  0  0  0
   -5.6830   -2.0490    0.0000 O   0  0  0  0  0  0  0  0  0  0  0  0
   -5.6830   -4.6471    0.0000 O   0  0  0  0  0  0  0  0  0  0  0  0
   -7.1830   -4.6471    0.0000 C   0  0  0  0  0  0  0  0  0  0  0  0
   -7.9330   -5.9462    0.0000 C   0  0  0  0  0  0  0  0  0  0  0  0
   -2.6830   -4.6471    0.0000 P   0  0  0  0  0  0  0  0  0  0  0  0
   -1.9330   -5.9462    0.0000 O   0  0  0  0  0  0  0  0  0  0  0  0
   -3.9821   -5.3971    0.0000 O   0  0  0  0  0  0  0  0  0  0  0  0
   -3.9821   -6.8971    0.0000 C   0  0  0  0  0  0  0  0  0  0  0  0
   -5.2811   -7.6471    0.0000 C   0  0  0  0  0  0  0  0  0  0  0  0
   -1.3840   -3.8971    0.0000 O   0  0  0  0  0  0  0  0  0  0  0  0
   -0.0849   -4.6471    0.0000 C   0  0  0  0  0  0  0  0  0  0  0  0
    1.2141   -3.8971    0.0000 C   0  0  0  0  0  0  0  0  0  0  0  0
    8.6414   -5.2244    0.0000 C   0  0  0  0  0  0  0  0  0  0  0  0
    9.1544   -3.8148    0.0000 C   0  0  0  0  0  0  0  0  0  0  0  0
    9.6055   -6.3735    0.0000 C   0  0  0  0  0  0  0  0  0  0  0  0
  1  2  2  0
  2  3  1  0
  4  3  1  6
  4  5  1  0
  5  6  1  0
  6  7  1  0
  7  8  1  0
  7  9  2  0
  9 10  1  0
 10 11  1  0
 11 12  1  0
 12 13  1  1
 12 14  1  0
 14 15  1  0
 15 16  1  1
 16 17  1  0
 17 18  1  0
 18 19  1  0
 19 20  2  0
 19 21  1  0
 21 22  1  0
 22 23  1  0
 18 24  1  0
 24 25  2  0
 24 26  1  0
 26 27  1  0
 27 28  1  0
 24 29  1  0
 29 30  1  0
 30 31  1  0
  4 32  1  0
 32 33  2  0
 32 34  1  0
 15 12  1  0
M  END
$$$$
SI-6-A
     RDKit          2D

 27 27  0  0  0  0  0  0  0  0999 V2000
    7.1023   -9.4530    0.0000 C   0  0  0  0  0  0  0  0  0  0  0  0
    7.6153   -8.0435    0.0000 C   0  0  0  0  0  0  0  0  0  0  0  0
    6.6511   -6.8944    0.0000 C   0  0  0  0  0  0  0  0  0  0  0  0
    7.1641   -5.4849    0.0000 C   0  0  0  0  0  0  0  0  0  0  0  0
    6.2000   -4.3358    0.0000 C   0  0  0  0  0  0  0  0  0  0  0  0
    6.7130   -2.9263    0.0000 C   0  0  0  0  0  0  0  0  0  0  0  0
    5.7488   -1.7772    0.0000 C   0  0  0  0  0  0  0  0  0  0  0  0
    6.2618   -0.3676    0.0000 C   0  0  0  0  0  0  0  0  0  0  0  0
    4.2716   -2.0377    0.0000 C   0  0  0  0  0  0  0  0  0  0  0  0
    3.3074   -0.8886    0.0000 C   0  0  0  0  0  0  0  0  0  0  0  0
    1.8302   -1.1491    0.0000 C   0  0  0  0  0  0  0  0  0  0  0  0
    0.8660    0.0000    0.0000 C   0  0  0  0  0  0  0  0  0  0  0  0
    1.8302    1.1491    0.0000 C   0  0  0  0  0  0  0  0  0  0  0  0
   -0.4330    0.7500    0.0000 O   0  0  0  0  0  0  0  0  0  0  0  0
   -0.4330   -0.7500    0.0000 C   0  0  0  0  0  0  0  0  0  0  0  0
   -1.1830   -2.0490    0.0000 C   0  0  0  0  0  0  0  0  0  0  0  0
   -2.6830   -2.0490    0.0000 C   0  0  0  0  0  0  0  0  0  0  0  0
   -3.4330   -3.3481    0.0000 C   0  0  0  0  0  0  0  0  0  0  0  0
   -4.9330   -3.3481    0.0000 C   0  0  0  0  0  0  0  0  0  0  0  0
   -2.6830   -4.6471    0.0000 C   0  0  0  0  0  0  0  0  0  0  0  0
   -1.1830   -4.6471    0.0000 O   0  0  0  0  0  0  0  0  0  0  0  0
   -3.4330   -5.9462    0.0000 O   0  0  0  0  0  0  0  0  0  0  0  0
   -2.6830   -7.2452    0.0000 C   0  0  0  0  0  0  0  0  0  0  0  0
   -3.4330   -8.5442    0.0000 C   0  0  0  0  0  0  0  0  0  0  0  0
    8.6414   -5.2244    0.0000 C   0  0  0  0  0  0  0  0  0  0  0  0
    9.1544   -3.8148    0.0000 C   0  0  0  0  0  0  0  0  0  0  0  0
    9.6055   -6.3735    0.0000 C   0  0  0  0  0  0  0  0  0  0  0  0
  1  2  2  0
  2  3  1  0
  4  3  1  6
  4  5  1  0
  5  6  1  0
  6  7  1  0
  7  8  1  0
  7  9  2  0
  9 10  1  0
 10 11  1  0
 11 12  1  0
 12 13  1  1
 12 14  1  0
 14 15  1  0
 15 16  1  1
 16 17  1  0
 17 18  1  0
 18 19  2  0
 18 20  1  0
 20 21  2  0
 20 22  1  0
 22 23  1  0
 23 24  1  0
  4 25  1  0
 25 26  2  0
 25 27  1  0
 15 12  1  0
M  END
$$$$
diagnostic-Wittig-B
     RDKit          2D

 34 34  0  0  0  0  0  0  0  0999 V2000
    8.1902   -2.6658    0.0000 C   0  0  0  0  0  0  0  0  0  0  0  0
    6.7130   -2.9263    0.0000 C   0  0  0  0  0  0  0  0  0  0  0  0
    5.7488   -1.7772    0.0000 C   0  0  0  0  0  0  0  0  0  0  0  0
    4.2716   -2.0377    0.0000 C   0  0  0  0  0  0  0  0  0  0  0  0
    3.3074   -0.8886    0.0000 C   0  0  0  0  0  0  0  0  0  0  0  0
    1.8302   -1.1491    0.0000 C   0  0  0  0  0  0  0  0  0  0  0  0
    0.8660    0.0000    0.0000 C   0  0  0  0  0  0  0  0  0  0  0  0
    1.8302    1.1491    0.0000 C   0  0  0  0  0  0  0  0  0  0  0  0
   -0.4330    0.7500    0.0000 O   0  0  0  0  0  0  0  0  0  0  0  0
   -0.4330   -0.7500    0.0000 C   0  0  0  0  0  0  0  0  0  0  0  0
   -1.1830   -2.0490    0.0000 C   0  0  0  0  0  0  0  0  0  0  0  0
   -2.6830   -2.0490    0.0000 C   0  0  0  0  0  0  0  0  0  0  0  0
   -3.4330   -3.3481    0.0000 C   0  0  0  0  0  0  0  0  0  0  0  0
   -2.6830   -4.6471    0.0000 C   0  0  0  0  0  0  0  0  0  0  0  0
   -4.9330   -3.3481    0.0000 C   0  0  0  0  0  0  0  0  0  0  0  0
   -5.6830   -4.6471    0.0000 C   0  0  0  0  0  0  0  0  0  0  0  0
   -7.1830   -4.6471    0.0000 C   0  0  0  0  0  0  0  0  0  0  0  0
   -7.9330   -5.9462    0.0000 C   0  0  0  0  0  0  0  0  0  0  0  0
   -9.4330   -5.9462    0.0000 C   0  0  0  0  0  0  0  0  0  0  0  0
  -10.1830   -4.6471    0.0000 O   0  0  0  0  0  0  0  0  0  0  0  0
  -10.1830   -7.2452    0.0000 O   0  0  0  0  0  0  0  0  0  0  0  0
  -11.6830   -7.2452    0.0000 C   0  0  0  0  0  0  0  0  0  0  0  0
  -12.4330   -8.5442    0.0000 C   0  0  0  0  0  0  0  0  0  0  0  0
   -7.1830   -7.2452    0.0000 P   0  0  0  0  0  0  0  0  0  0  0  0
   -6.4330   -8.5442    0.0000 O   0  0  0  0  0  0  0  0  0  0  0  0
   -8.4821   -7.9952    0.0000 O   0  0  0  0  0  0  0  0  0  0  0  0
   -8.4821   -9.4952    0.0000 C   0  0  0  0  0  0  0  0  0  0  0  0
   -9.7811  -10.2452    0.0000 C   0  0  0  0  0  0  0  0  0  0  0  0
   -5.8840   -6.4952    0.0000 O   0  0  0  0  0  0  0  0  0  0  0  0
   -4.5849   -7.2452    0.0000 C   0  0  0  0  0  0  0  0  0  0  0  0
   -3.2859   -6.4952    0.0000 C   0  0  0  0  0  0  0  0  0  0  0  0
    3.7586   -3.4472    0.0000 C   0  0  0  0  0  0  0  0  0  0  0  0
    2.2814   -3.7077    0.0000 C   0  0  0  0  0  0  0  0  0  0  0  0
    4.7228   -4.5963    0.0000 C   0  0  0  0  0  0  0  0  0  0  0  0
  1  2  2  0
  2  3  1  0
  4  3  1  1
  4  5  1  0
  5  6  1  0
  6  7  1  0
  7  8  1  1
  7  9  1  0
  9 10  1  0
 10 11  1  1
 11 12  1  0
 12 13  1  0
 13 14  1  0
 13 15  2  0
 15 16  1  0
 16 17  1  0
 17 18  1  0
 18 19  1  0
 19 20  2  0
 19 21  1  0
 21 22  1  0
 22 23  1  0
 18 24  1  0
 24 25  2  0
 24 26  1  0
 26 27  1  0
 27 28  1  0
 24 29  1  0
 29 30  1  0
 30 31  1  0
  4 32  1  0
 32 33  2  0
 32 34  1  0
 10  7  1  0
M  END
$$$$
SI-6-B
     RDKit          2D

 27 27  0  0  0  0  0  0  0  0999 V2000
    8.1902   -2.6658    0.0000 C   0  0  0  0  0  0  0  0  0  0  0  0
    6.7130   -2.9263    0.0000 C   0  0  0  0  0  0  0  0  0  0  0  0
    5.7488   -1.7772    0.0000 C   0  0  0  0  0  0  0  0  0  0  0  0
    4.2716   -2.0377    0.0000 C   0  0  0  0  0  0  0  0  0  0  0  0
    3.3074   -0.8886    0.0000 C   0  0  0  0  0  0  0  0  0  0  0  0
    1.8302   -1.1491    0.0000 C   0  0  0  0  0  0  0  0  0  0  0  0
    0.8660    0.0000    0.0000 C   0  0  0  0  0  0  0  0  0  0  0  0
    1.8302    1.1491    0.0000 C   0  0  0  0  0  0  0  0  0  0  0  0
   -0.4330    0.7500    0.0000 O   0  0  0  0  0  0  0  0  0  0  0  0
   -0.4330   -0.7500    0.0000 C   0  0  0  0  0  0  0  0  0  0  0  0
   -1.1830   -2.0490    0.0000 C   0  0  0  0  0  0  0  0  0  0  0  0
   -2.6830   -2.0490    0.0000 C   0  0  0  0  0  0  0  0  0  0  0  0
   -3.4330   -3.3481    0.0000 C   0  0  0  0  0  0  0  0  0  0  0  0
   -2.6830   -4.6471    0.0000 C   0  0  0  0  0  0  0  0  0  0  0  0
   -4.9330   -3.3481    0.0000 C   0  0  0  0  0  0  0  0  0  0  0  0
   -5.6830   -4.6471    0.0000 C   0  0  0  0  0  0  0  0  0  0  0  0
   -7.1830   -4.6471    0.0000 C   0  0  0  0  0  0  0  0  0  0  0  0
   -7.9330   -5.9462    0.0000 C   0  0  0  0  0  0  0  0  0  0  0  0
   -9.4330   -5.9462    0.0000 C   0  0  0  0  0  0  0  0  0  0  0  0
   -7.1830   -7.2452    0.0000 C   0  0  0  0  0  0  0  0  0  0  0  0
   -5.6830   -7.2452    0.0000 O   0  0  0  0  0  0  0  0  0  0  0  0
   -7.9330   -8.5442    0.0000 O   0  0  0  0  0  0  0  0  0  0  0  0
   -7.1830   -9.8433    0.0000 C   0  0  0  0  0  0  0  0  0  0  0  0
   -7.9330  -11.1423    0.0000 C   0  0  0  0  0  0  0  0  0  0  0  0
    3.7586   -3.4472    0.0000 C   0  0  0  0  0  0  0  0  0  0  0  0
    2.2814   -3.7077    0.0000 C   0  0  0  0  0  0  0  0  0  0  0  0
    4.7228   -4.5963    0.0000 C   0  0  0  0  0  0  0  0  0  0  0  0
  1  2  2  0
  2  3  1  0
  4  3  1  1
  4  5  1  0
  5  6  1  0
  6  7  1  0
  7  8  1  1
  7  9  1  0
  9 10  1  0
 10 11  1  1
 11 12  1  0
 12 13  1  0
 13 14  1  0
 13 15  2  0
 15 16  1  0
 16 17  1  0
 17 18  1  0
 18 19  2  0
 18 20  1  0
 20 21  2  0
 20 22  1  0
 22 23  1  0
 23 24  1  0
  4 25  1  0
 25 26  2  0
 25 27  1  0
 10  7  1  0
M  END
$$$$
diagnostic-Wittig-C
     RDKit          2D

 34 34  0  0  0  0  0  0  0  0999 V2000
    8.1902   -2.6658    0.0000 C   0  0  0  0  0  0  0  0  0  0  0  0
    6.7130   -2.9263    0.0000 C   0  0  0  0  0  0  0  0  0  0  0  0
    5.7488   -1.7772    0.0000 C   0  0  0  0  0  0  0  0  0  0  0  0
    4.2716   -2.0377    0.0000 C   0  0  0  0  0  0  0  0  0  0  0  0
    3.3074   -0.8886    0.0000 C   0  0  0  0  0  0  0  0  0  0  0  0
    1.8302   -1.1491    0.0000 C   0  0  0  0  0  0  0  0  0  0  0  0
    0.8660    0.0000    0.0000 C   0  0  0  0  0  0  0  0  0  0  0  0
    1.8302    1.1491    0.0000 C   0  0  0  0  0  0  0  0  0  0  0  0
   -0.4330    0.7500    0.0000 O   0  0  0  0  0  0  0  0  0  0  0  0
   -0.4330   -0.7500    0.0000 C   0  0  0  0  0  0  0  0  0  0  0  0
   -1.1830   -2.0490    0.0000 C   0  0  0  0  0  0  0  0  0  0  0  0
   -2.6830   -2.0490    0.0000 C   0  0  0  0  0  0  0  0  0  0  0  0
   -3.4330   -3.3481    0.0000 C   0  0  0  0  0  0  0  0  0  0  0  0
   -2.6830   -4.6471    0.0000 C   0  0  0  0  0  0  0  0  0  0  0  0
   -4.9330   -3.3481    0.0000 C   0  0  0  0  0  0  0  0  0  0  0  0
   -5.6830   -4.6471    0.0000 C   0  0  0  0  0  0  0  0  0  0  0  0
   -7.1830   -4.6471    0.0000 C   0  0  0  0  0  0  0  0  0  0  0  0
   -7.9330   -5.9462    0.0000 C   0  0  0  0  0  0  0  0  0  0  0  0
   -9.4330   -5.9462    0.0000 C   0  0  0  0  0  0  0  0  0  0  0  0
  -10.1830   -4.6471    0.0000 O   0  0  0  0  0  0  0  0  0  0  0  0
  -10.1830   -7.2452    0.0000 O   0  0  0  0  0  0  0  0  0  0  0  0
  -11.6830   -7.2452    0.0000 C   0  0  0  0  0  0  0  0  0  0  0  0
  -12.4330   -8.5442    0.0000 C   0  0  0  0  0  0  0  0  0  0  0  0
   -7.1830   -7.2452    0.0000 P   0  0  0  0  0  0  0  0  0  0  0  0
   -6.4330   -8.5442    0.0000 O   0  0  0  0  0  0  0  0  0  0  0  0
   -8.4821   -7.9952    0.0000 O   0  0  0  0  0  0  0  0  0  0  0  0
   -8.4821   -9.4952    0.0000 C   0  0  0  0  0  0  0  0  0  0  0  0
   -9.7811  -10.2452    0.0000 C   0  0  0  0  0  0  0  0  0  0  0  0
   -5.8840   -6.4952    0.0000 O   0  0  0  0  0  0  0  0  0  0  0  0
   -4.5849   -7.2452    0.0000 C   0  0  0  0  0  0  0  0  0  0  0  0
   -3.2859   -6.4952    0.0000 C   0  0  0  0  0  0  0  0  0  0  0  0
    3.7586   -3.4472    0.0000 C   0  0  0  0  0  0  0  0  0  0  0  0
    2.2814   -3.7077    0.0000 C   0  0  0  0  0  0  0  0  0  0  0  0
    4.7228   -4.5963    0.0000 C   0  0  0  0  0  0  0  0  0  0  0  0
  1  2  2  0
  2  3  1  0
  4  3  1  1
  4  5  1  0
  5  6  1  0
  6  7  1  0
  7  8  1  6
  7  9  1  0
  9 10  1  0
 10 11  1  6
 11 12  1  0
 12 13  1  0
 13 14  1  0
 13 15  2  0
 15 16  1  0
 16 17  1  0
 17 18  1  0
 18 19  1  0
 19 20  2  0
 19 21  1  0
 21 22  1  0
 22 23  1  0
 18 24  1  0
 24 25  2  0
 24 26  1  0
 26 27  1  0
 27 28  1  0
 24 29  1  0
 29 30  1  0
 30 31  1  0
  4 32  1  0
 32 33  2  0
 32 34  1  0
 10  7  1  0
M  END
$$$$
SI-6-C
     RDKit          2D

 27 27  0  0  0  0  0  0  0  0999 V2000
    8.1902   -2.6658    0.0000 C   0  0  0  0  0  0  0  0  0  0  0  0
    6.7130   -2.9263    0.0000 C   0  0  0  0  0  0  0  0  0  0  0  0
    5.7488   -1.7772    0.0000 C   0  0  0  0  0  0  0  0  0  0  0  0
    4.2716   -2.0377    0.0000 C   0  0  0  0  0  0  0  0  0  0  0  0
    3.3074   -0.8886    0.0000 C   0  0  0  0  0  0  0  0  0  0  0  0
    1.8302   -1.1491    0.0000 C   0  0  0  0  0  0  0  0  0  0  0  0
    0.8660    0.0000    0.0000 C   0  0  0  0  0  0  0  0  0  0  0  0
    1.8302    1.1491    0.0000 C   0  0  0  0  0  0  0  0  0  0  0  0
   -0.4330    0.7500    0.0000 O   0  0  0  0  0  0  0  0  0  0  0  0
   -0.4330   -0.7500    0.0000 C   0  0  0  0  0  0  0  0  0  0  0  0
   -1.1830   -2.0490    0.0000 C   0  0  0  0  0  0  0  0  0  0  0  0
   -2.6830   -2.0490    0.0000 C   0  0  0  0  0  0  0  0  0  0  0  0
   -3.4330   -3.3481    0.0000 C   0  0  0  0  0  0  0  0  0  0  0  0
   -2.6830   -4.6471    0.0000 C   0  0  0  0  0  0  0  0  0  0  0  0
   -4.9330   -3.3481    0.0000 C   0  0  0  0  0  0  0  0  0  0  0  0
   -5.6830   -4.6471    0.0000 C   0  0  0  0  0  0  0  0  0  0  0  0
   -7.1830   -4.6471    0.0000 C   0  0  0  0  0  0  0  0  0  0  0  0
   -7.9330   -5.9462    0.0000 C   0  0  0  0  0  0  0  0  0  0  0  0
   -9.4330   -5.9462    0.0000 C   0  0  0  0  0  0  0  0  0  0  0  0
   -7.1830   -7.2452    0.0000 C   0  0  0  0  0  0  0  0  0  0  0  0
   -5.6830   -7.2452    0.0000 O   0  0  0  0  0  0  0  0  0  0  0  0
   -7.9330   -8.5442    0.0000 O   0  0  0  0  0  0  0  0  0  0  0  0
   -7.1830   -9.8433    0.0000 C   0  0  0  0  0  0  0  0  0  0  0  0
   -7.9330  -11.1423    0.0000 C   0  0  0  0  0  0  0  0  0  0  0  0
    3.7586   -3.4472    0.0000 C   0  0  0  0  0  0  0  0  0  0  0  0
    2.2814   -3.7077    0.0000 C   0  0  0  0  0  0  0  0  0  0  0  0
    4.7228   -4.5963    0.0000 C   0  0  0  0  0  0  0  0  0  0  0  0
  1  2  2  0
  2  3  1  0
  4  3  1  1
  4  5  1  0
  5  6  1  0
  6  7  1  0
  7  8  1  6
  7  9  1  0
  9 10  1  0
 10 11  1  6
 11 12  1  0
 12 13  1  0
 13 14  1  0
 13 15  2  0
 15 16  1  0
 16 17  1  0
 17 18  1  0
 18 19  2  0
 18 20  1  0
 20 21  2  0
 20 22  1  0
 22 23  1  0
 23 24  1  0
  4 25  1  0
 25 26  2  0
 25 27  1  0
 10  7  1  0
M  END
$$$$
TBDPSCl
     RDKit          2D

 18 19  0  0  0  0  0  0  0  0999 V2000
    3.5490   -3.1471    0.0000 C   0  0  0  0  0  0  0  0  0  0  0  0
    2.2500   -3.8971    0.0000 C   0  0  0  0  0  0  0  0  0  0  0  0
    0.9510   -4.6471    0.0000 C   0  0  0  0  0  0  0  0  0  0  0  0
    3.0000   -5.1962    0.0000 C   0  0  0  0  0  0  0  0  0  0  0  0
    1.5000   -2.5981    0.0000 Si  0  0  0  0  0  4  0  0  0  0  0  0
    0.2010   -3.3481    0.0000 Cl  0  0  0  0  0  0  0  0  0  0  0  0
    0.7500   -1.2990    0.0000 C   0  0  0  0  0  0  0  0  0  0  0  0
    1.5000    0.0000    0.0000 C   0  0  0  0  0  0  0  0  0  0  0  0
    0.7500    1.2990    0.0000 C   0  0  0  0  0  0  0  0  0  0  0  0
   -0.7500    1.2990    0.0000 C   0  0  0  0  0  0  0  0  0  0  0  0
   -1.5000    0.0000    0.0000 C   0  0  0  0  0  0  0  0  0  0  0  0
   -0.7500   -1.2990    0.0000 C   0  0  0  0  0  0  0  0  0  0  0  0
    2.7990   -1.8481    0.0000 C   0  0  0  0  0  0  0  0  0  0  0  0
    4.0981   -2.5981    0.0000 C   0  0  0  0  0  0  0  0  0  0  0  0
    5.3971   -1.8481    0.0000 C   0  0  0  0  0  0  0  0  0  0  0  0
    5.3971   -0.3481    0.0000 C   0  0  0  0  0  0  0  0  0  0  0  0
    4.0981    0.4019    0.0000 C   0  0  0  0  0  0  0  0  0  0  0  0
    2.7990   -0.3481    0.0000 C   0  0  0  0  0  0  0  0  0  0  0  0
  1  2  1  0
  2  3  1  0
  2  4  1  0
  2  5  1  0
  5  6  1  0
  5  7  1  0
  7  8  2  0
  8  9  1  0
  9 10  2  0
 10 11  1  0
 11 12  2  0
  5 13  1  0
 13 14  2  0
 14 15  1  0
 15 16  2  0
 16 17  1  0
 17 18  2  0
 12  7  1  0
 18 13  1  0
M  END
$$$$
MOMBr
     RDKit          2D

  4  3  0  0  0  0  0  0  0  0999 V2000
    0.0000    0.0000    0.0000 C   0  0  0  0  0  0  0  0  0  0  0  0
    1.2990    0.7500    0.0000 O   0  0  0  0  0  0  0  0  0  0  0  0
    2.5981   -0.0000    0.0000 C   0  0  0  0  0  0  0  0  0  0  0  0
    3.8971    0.7500    0.0000 Br  0  0  0  0  0  0  0  0  0  0  0  0
  1  2  1  0
  2  3  1  0
  3  4  1  0
M  END
$$$$
isopropenyl-MgBr
     RDKit          2D

  5  2  0  0  0  0  0  0  0  0999 V2000
    0.0000    0.0000    0.0000 C   0  0  0  0  0  0  0  0  0  0  0  0
    1.2990    0.7500    0.0000 C   0  0  0  0  0  0  0  0  0  0  0  0
    2.5981   -0.0000    0.0000 C   0  0  0  0  0  0  0  0  0  0  0  0
    0.0000    2.7500    0.0000 Br  0  0  0  0  0  0  0  0  0  0  0  0
    0.0000    1.7500    0.0000 Mg  0  0  0  0  0 15  0  0  0  0  0  0
  1  2  2  0
  2  3  1  0
M  CHG  3   2  -1   4  -1   5   2
M  END
$$$$
methylphosphonium-bromide
     RDKit          2D

 21 22  0  0  0  0  0  0  0  0999 V2000
    2.2500   -3.8971    0.0000 C   0  0  0  0  0  0  0  0  0  0  0  0
    1.5000   -2.5981    0.0000 P   0  0  0  0  0  0  0  0  0  0  0  0
    0.7500   -1.2990    0.0000 C   0  0  0  0  0  0  0  0  0  0  0  0
    1.5000    0.0000    0.0000 C   0  0  0  0  0  0  0  0  0  0  0  0
    0.7500    1.2990    0.0000 C   0  0  0  0  0  0  0  0  0  0  0  0
   -0.7500    1.2990    0.0000 C   0  0  0  0  0  0  0  0  0  0  0  0
   -1.5000    0.0000    0.0000 C   0  0  0  0  0  0  0  0  0  0  0  0
   -0.7500   -1.2990    0.0000 C   0  0  0  0  0  0  0  0  0  0  0  0
    2.7990   -1.8481    0.0000 C   0  0  0  0  0  0  0  0  0  0  0  0
    4.0981   -2.5981    0.0000 C   0  0  0  0  0  0  0  0  0  0  0  0
    5.3971   -1.8481    0.0000 C   0  0  0  0  0  0  0  0  0  0  0  0
    5.3971   -0.3481    0.0000 C   0  0  0  0  0  0  0  0  0  0  0  0
    4.0981    0.4019    0.0000 C   0  0  0  0  0  0  0  0  0  0  0  0
    2.7990   -0.3481    0.0000 C   0  0  0  0  0  0  0  0  0  0  0  0
    0.2010   -3.3481    0.0000 C   0  0  0  0  0  0  0  0  0  0  0  0
   -1.0981   -2.5981    0.0000 C   0  0  0  0  0  0  0  0  0  0  0  0
   -2.3971   -3.3481    0.0000 C   0  0  0  0  0  0  0  0  0  0  0  0
   -2.3971   -4.8481    0.0000 C   0  0  0  0  0  0  0  0  0  0  0  0
   -1.0981   -5.5981    0.0000 C   0  0  0  0  0  0  0  0  0  0  0  0
    0.2010   -4.8481    0.0000 C   0  0  0  0  0  0  0  0  0  0  0  0
    0.0000    2.2990    0.0000 Br  0  0  0  0  0  0  0  0  0  0  0  0
  1  2  1  0
  2  3  1  0
  3  4  2  0
  4  5  1  0
  5  6  2  0
  6  7  1  0
  7  8  2  0
  2  9  1  0
  9 10  2  0
 10 11  1  0
 11 12  2  0
 12 13  1  0
 13 14  2  0
  2 15  1  0
 15 16  2  0
 16 17  1  0
 17 18  2  0
 18 19  1  0
 19 20  2  0
  8  3  1  0
 14  9  1  0
 20 15  1  0
M  CHG  2   2   1  21  -1
M  END
$$$$
formaldehyde
     RDKit          2D

  2  1  0  0  0  0  0  0  0  0999 V2000
    0.0000    0.0000    0.0000 C   0  0  0  0  0  0  0  0  0  0  0  0
    1.2990    0.7500    0.0000 O   0  0  0  0  0  0  0  0  0  0  0  0
  1  2  2  0
M  END
$$$$
acetic-anhydride
     RDKit          2D

  7  6  0  0  0  0  0  0  0  0999 V2000
    0.0000    0.0000    0.0000 C   0  0  0  0  0  0  0  0  0  0  0  0
    1.2990    0.7500    0.0000 C   0  0  0  0  0  0  0  0  0  0  0  0
    2.5981   -0.0000    0.0000 O   0  0  0  0  0  0  0  0  0  0  0  0
    1.2990    2.2500    0.0000 O   0  0  0  0  0  0  0  0  0  0  0  0
    2.5981    3.0000    0.0000 C   0  0  0  0  0  0  0  0  0  0  0  0
    2.5981    4.5000    0.0000 C   0  0  0  0  0  0  0  0  0  0  0  0
    3.8971    2.2500    0.0000 O   0  0  0  0  0  0  0  0  0  0  0  0
  1  2  1  0
  2  3  2  0
  2  4  1  0
  4  5  1  0
  5  6  1  0
  5  7  2  0
M  END
$$$$
