14
     RDKit          2D

 17 18  0  0  0  0  0  0  0  0999 V2000
    7.5180    3.1333    0.0000 C   0  0  0  0  0  0  0  0  0  0  0  0
    6.2460    2.3384    0.0000 C   0  0  0  0  0  0  0  0  0  0  0  0
    6.2983    0.8394    0.0000 O   0  0  0  0  0  0  0  0  0  0  0  0
    4.9215    3.0426    0.0000 C   0  0  0  0  0  0  0  0  0  0  0  0
    3.6495    2.2478    0.0000 C   0  0  0  0  0  0  0  0  0  0  0  0
    2.3250    2.9520    0.0000 C   0  0  0  0  0  0  0  0  0  0  0  0
    3.2485    4.1340    0.0000 C   0  0  0  0  0  0  0  0  0  0  0  0
    1.8615    1.5254    0.0000 C   0  0  0  0  0  0  0  0  0  0  0  0
    0.3943    1.2135    0.0000 C   0  0  0  0  0  0  0  0  0  0  0  0
   -0.6094    2.3282    0.0000 C   0  0  0  0  0  0  0  0  0  0  0  0
   -0.1459    3.7548    0.0000 C   0  0  0  0  0  0  0  0  0  0  0  0
    1.3213    4.0667    0.0000 C   0  0  0  0  0  0  0  0  0  0  0  0
    1.7849    5.4933    0.0000 O   0  0  0  0  0  0  0  0  0  0  0  0
    1.2760    0.0000    0.0000 O   0  0  0  0  0  0  0  0  0  0  0  0
    0.3943   -1.2135    0.0000 C   0  0  0  0  0  0  0  0  0  0  0  0
   -1.0323   -0.7500    0.0000 C   0  0  0  0  0  0  0  0  0  0  0  0
   -1.0323    0.7500    0.0000 O   0  0  0  0  0  0  0  0  0  0  0  0
  1  2  1  0
  2  3  2  0
  2  4  1  0
  4  5  1  0
  5  6  1  0
  6  7  1  1
  6  8  1  0
  8  9  1  0
  9 10  1  0
 10 11  1  0
 11 12  1  0
 12 13  2  0
  9 14  1  0
 14 15  1  0
 15 16  1  0
 16 17  1  0
 12  6  1  0
 17  9  1  0
M  END
$$$$
14-Wittig
     RDKit          2D

 17 18  0  0  0  0  0  0  0  0999 V2000
    6.2983    0.8394    0.0000 C   0  0  0  0  0  0  0  0  0  0  0  0
    6.2460    2.3384    0.0000 C   0  0  0  0  0  0  0  0  0  0  0  0
    7.5180    3.1333    0.0000 C   0  0  0  0  0  0  0  0  0  0  0  0
    4.9215    3.0426    0.0000 C   0  0  0  0  0  0  0  0  0  0  0  0
    3.6495    2.2478    0.0000 C   0  0  0  0  0  0  0  0  0  0  0  0
    2.3250    2.9520    0.0000 C   0  0  0  0  0  0  0  0  0  0  0  0
    3.2485    4.1340    0.0000 C   0  0  0  0  0  0  0  0  0  0  0  0
    1.8615    1.5254    0.0000 C   0  0  0  0  0  0  0  0  0  0  0  0
    0.3943    1.2135    0.0000 C   0  0  0  0  0  0  0  0  0  0  0  0
   -0.6094    2.3282    0.0000 C   0  0  0  0  0  0  0  0  0  0  0  0
   -0.1459    3.7548    0.0000 C   0  0  0  0  0  0  0  0  0  0  0  0
    1.3213    4.0667    0.0000 C   0  0  0  0  0  0  0  0  0  0  0  0
    1.7849    5.4933    0.0000 O   0  0  0  0  0  0  0  0  0  0  0  0
    1.2760    0.0000    0.0000 O   0  0  0  0  0  0  0  0  0  0  0  0
    0.3943   -1.2135    0.0000 C   0  0  0  0  0  0  0  0  0  0  0  0
   -1.0323   -0.7500    0.0000 C   0  0  0  0  0  0  0  0  0  0  0  0
   -1.0323    0.7500    0.0000 O   0  0  0  0  0  0  0  0  0  0  0  0
  1  2  2  0
  2  3  1  0
  2  4  1  0
  4  5  1  0
  5  6  1  0
  6  7  1  1
  6  8  1  0
  8  9  1  0
  9 10  1  0
 10 11  1  0
 11 12  1  0
 12 13  2  0
  9 14  1  0
 14 15  1  0
 15 16  1  0
 16 17  1  0
 12  6  1  0
 17  9  1  0
M  END
$$$$
15
     RDKit          2D

 24 25  0  0  0  0  0  0  0  0999 V2000
    6.2983    0.8394    0.0000 C   0  0  0  0  0  0  0  0  0  0  0  0
    6.2460    2.3384    0.0000 C   0  0  0  0  0  0  0  0  0  0  0  0
    7.5180    3.1333    0.0000 C   0  0  0  0  0  0  0  0  0  0  0  0
    4.9215    3.0426    0.0000 C   0  0  0  0  0  0  0  0  0  0  0  0
    3.6495    2.2478    0.0000 C   0  0  0  0  0  0  0  0  0  0  0  0
    2.3250    2.9520    0.0000 C   0  0  0  0  0  0  0  0  0  0  0  0
    3.2485    4.1340    0.0000 C   0  0  0  0  0  0  0  0  0  0  0  0
    1.8615    1.5254    0.0000 C   0  0  0  0  0  0  0  0  0  0  0  0
    0.3943    1.2135    0.0000 C   0  0  0  0  0  0  0  0  0  0  0  0
   -0.6094    2.3282    0.0000 C   0  0  0  0  0  0  0  0  0  0  0  0
   -0.1459    3.7548    0.0000 C   0  0  0  0  0  0  0  0  0  0  0  0
    1.3213    4.0667    0.0000 C   0  0  0  0  0  0  0  0  0  0  0  0
    1.7849    5.4933    0.0000 O   0  0  0  0  0  0  0  0  0  0  0  0
    0.7812    6.6080    0.0000 S   0  0  0  0  0  0  0  0  0  0  0  0
   -0.3335    5.6043    0.0000 O   0  0  0  0  0  0  0  0  0  0  0  0
    1.8959    7.6117    0.0000 O   0  0  0  0  0  0  0  0  0  0  0  0
   -0.2225    7.7227    0.0000 C   0  0  0  0  0  0  0  0  0  0  0  0
   -1.3372    6.7190    0.0000 F   0  0  0  0  0  0  0  0  0  0  0  0
    0.8922    8.7264    0.0000 F   0  0  0  0  0  0  0  0  0  0  0  0
   -1.2262    8.8374    0.0000 F   0  0  0  0  0  0  0  0  0  0  0  0
    1.2760    0.0000    0.0000 O   0  0  0  0  0  0  0  0  0  0  0  0
    0.3943   -1.2135    0.0000 C   0  0  0  0  0  0  0  0  0  0  0  0
   -1.0323   -0.7500    0.0000 C   0  0  0  0  0  0  0  0  0  0  0  0
   -1.0323    0.7500    0.0000 O   0  0  0  0  0  0  0  0  0  0  0  0
  1  2  2  0
  2  3  1  0
  2  4  1  0
  4  5  1  0
  5  6  1  0
  6  7  1  1
  6  8  1  0
  8  9  1  0
  9 10  1  0
 10 11  1  0
 11 12  2  0
 12 13  1  0
 13 14  1  0
 14 15  2  0
 14 16  2  0
 14 17  1  0
 17 18  1  0
 17 19  1  0
 17 20  1  0
  9 21  1  0
 21 22  1  0
 22 23  1  0
 23 24  1  0
 12  6  1  0
 24  9  1  0
M  END
$$$$
16
     RDKit          2D

 20 22  0  0  0  0  0  0  0  0999 V2000
    6.4200    7.1642    0.0000 C   0  0  0  0  0  0  0  0  0  0  0  0
    5.4163    6.0495    0.0000 O   0  0  0  0  0  0  0  0  0  0  0  0
    3.9491    6.3613    0.0000 C   0  0  0  0  0  0  0  0  0  0  0  0
    3.4855    7.7879    0.0000 O   0  0  0  0  0  0  0  0  0  0  0  0
    2.9454    5.2466    0.0000 C   0  0  0  0  0  0  0  0  0  0  0  0
    1.4781    5.5585    0.0000 C   0  0  0  0  0  0  0  0  0  0  0  0
    1.9417    6.9851    0.0000 C   0  0  0  0  0  0  0  0  0  0  0  0
    0.1078    6.1686    0.0000 C   0  0  0  0  0  0  0  0  0  0  0  0
   -0.8959    5.0539    0.0000 C   0  0  0  0  0  0  0  0  0  0  0  0
   -0.1459    3.7548    0.0000 C   0  0  0  0  0  0  0  0  0  0  0  0
   -1.6377    3.5980    0.0000 C   0  0  0  0  0  0  0  0  0  0  0  0
   -0.6094    2.3282    0.0000 C   0  0  0  0  0  0  0  0  0  0  0  0
    0.3943    1.2135    0.0000 C   0  0  0  0  0  0  0  0  0  0  0  0
    1.8615    1.5254    0.0000 C   0  0  0  0  0  0  0  0  0  0  0  0
    2.3250    2.9520    0.0000 C   0  0  0  0  0  0  0  0  0  0  0  0
    1.3213    4.0667    0.0000 C   0  0  0  0  0  0  0  0  0  0  0  0
    1.2760    0.0000    0.0000 O   0  0  0  0  0  0  0  0  0  0  0  0
    0.3943   -1.2135    0.0000 C   0  0  0  0  0  0  0  0  0  0  0  0
   -1.0323   -0.7500    0.0000 C   0  0  0  0  0  0  0  0  0  0  0  0
   -1.0323    0.7500    0.0000 O   0  0  0  0  0  0  0  0  0  0  0  0
  1  2  1  0
  2  3  1  0
  3  4  2  0
  3  5  1  0
  5  6  1  0
  6  7  1  1
  6  8  1  0
  8  9  1  0
  9 10  1  0
 10 11  1  6
 10 12  1  0
 12 13  1  0
 13 14  1  0
 14 15  1  0
 15 16  2  0
 13 17  1  0
 17 18  1  0
 18 19  1  0
 19 20  1  0
 16  6  1  0
 16 10  1  0
 20 13  1  0
M  END
$$$$
17
     RDKit          2D

 17 18  0  0  0  0  0  0  0  0999 V2000
   -6.3812   -3.2688    0.0000 C   0  0  0  0  0  0  0  0  0  0  0  0
   -5.1677   -2.3871    0.0000 O   0  0  0  0  0  0  0  0  0  0  0  0
   -3.7974   -2.9972    0.0000 C   0  0  0  0  0  0  0  0  0  0  0  0
   -3.6406   -4.4890    0.0000 O   0  0  0  0  0  0  0  0  0  0  0  0
   -2.5838   -2.1155    0.0000 C   0  0  0  0  0  0  0  0  0  0  0  0
   -1.2135   -2.7256    0.0000 C   0  0  0  0  0  0  0  0  0  0  0  0
   -1.9635   -4.0247    0.0000 C   0  0  0  0  0  0  0  0  0  0  0  0
   -0.0000   -3.6073    0.0000 C   0  0  0  0  0  0  0  0  0  0  0  0
    1.2135   -2.7256    0.0000 C   0  0  0  0  0  0  0  0  0  0  0  0
    0.7500   -1.2990    0.0000 C   0  0  0  0  0  0  0  0  0  0  0  0
    2.2418   -1.4558    0.0000 C   0  0  0  0  0  0  0  0  0  0  0  0
    1.5000    0.0000    0.0000 C   0  0  0  0  0  0  0  0  0  0  0  0
    0.7500    1.2990    0.0000 C   0  0  0  0  0  0  0  0  0  0  0  0
    1.5000    2.5981    0.0000 O   0  0  0  0  0  0  0  0  0  0  0  0
   -0.7500    1.2990    0.0000 C   0  0  0  0  0  0  0  0  0  0  0  0
   -1.5000    0.0000    0.0000 C   0  0  0  0  0  0  0  0  0  0  0  0
   -0.7500   -1.2990    0.0000 C   0  0  0  0  0  0  0  0  0  0  0  0
  1  2  1  0
  2  3  1  0
  3  4  2  0
  3  5  1  0
  5  6  1  0
  6  7  1  1
  6  8  1  0
  8  9  1  0
  9 10  1  0
 10 11  1  6
 10 12  1  0
 12 13  1  0
 13 14  2  0
 13 15  1  0
 15 16  2  0
 17 16  1  1
 17  6  1  0
 17 10  1  0
M  END
$$$$
18
     RDKit          2D

 18 19  0  0  0  0  0  0  0  0999 V2000
    6.3586   -1.0803    0.0000 C   0  0  0  0  0  0  0  0  0  0  0  0
    4.9320   -1.5439    0.0000 O   0  0  0  0  0  0  0  0  0  0  0  0
    3.8173   -0.5402    0.0000 C   0  0  0  0  0  0  0  0  0  0  0  0
    4.1291    0.9271    0.0000 O   0  0  0  0  0  0  0  0  0  0  0  0
    2.3907   -1.0037    0.0000 C   0  0  0  0  0  0  0  0  0  0  0  0
    1.2760    0.0000    0.0000 C   0  0  0  0  0  0  0  0  0  0  0  0
    2.3907    1.0037    0.0000 C   0  0  0  0  0  0  0  0  0  0  0  0
    0.3943    1.2135    0.0000 C   0  0  0  0  0  0  0  0  0  0  0  0
   -1.0323    0.7500    0.0000 C   0  0  0  0  0  0  0  0  0  0  0  0
   -1.0323   -0.7500    0.0000 C   0  0  0  0  0  0  0  0  0  0  0  0
   -2.4026   -0.1399    0.0000 C   0  0  0  0  0  0  0  0  0  0  0  0
   -2.1470   -1.7537    0.0000 C   0  0  0  0  0  0  0  0  0  0  0  0
   -1.8351   -3.2209    0.0000 C   0  0  0  0  0  0  0  0  0  0  0  0
   -2.9499   -4.2246    0.0000 O   0  0  0  0  0  0  0  0  0  0  0  0
   -0.4086   -3.6844    0.0000 C   0  0  0  0  0  0  0  0  0  0  0  0
   -0.0967   -5.1517    0.0000 I   0  0  0  0  0  0  0  0  0  0  0  0
    0.7062   -2.6807    0.0000 C   0  0  0  0  0  0  0  0  0  0  0  0
    0.3943   -1.2135    0.0000 C   0  0  0  0  0  0  0  0  0  0  0  0
  1  2  1  0
  2  3  1  0
  3  4  2  0
  3  5  1  0
  5  6  1  0
  6  7  1  1
  6  8  1  0
  8  9  1  0
  9 10  1  0
 10 11  1  6
 10 12  1  0
 12 13  1  0
 13 14  2  0
 13 15  1  0
 15 16  1  0
 15 17  2  0
 18 17  1  1
 18  6  1  0
 18 10  1  0
M  END
$$$$
19
     RDKit          2D

 25 26  0  0  0  0  0  0  0  0999 V2000
    6.3586   -1.0803    0.0000 C   0  0  0  0  0  0  0  0  0  0  0  0
    4.9320   -1.5439    0.0000 O   0  0  0  0  0  0  0  0  0  0  0  0
    3.8173   -0.5402    0.0000 C   0  0  0  0  0  0  0  0  0  0  0  0
    4.1291    0.9271    0.0000 O   0  0  0  0  0  0  0  0  0  0  0  0
    2.3907   -1.0037    0.0000 C   0  0  0  0  0  0  0  0  0  0  0  0
    1.2760    0.0000    0.0000 C   0  0  0  0  0  0  0  0  0  0  0  0
    2.3907    1.0037    0.0000 C   0  0  0  0  0  0  0  0  0  0  0  0
    0.3943    1.2135    0.0000 C   0  0  0  0  0  0  0  0  0  0  0  0
   -1.0323    0.7500    0.0000 C   0  0  0  0  0  0  0  0  0  0  0  0
   -1.0323   -0.7500    0.0000 C   0  0  0  0  0  0  0  0  0  0  0  0
   -2.4026   -0.1399    0.0000 C   0  0  0  0  0  0  0  0  0  0  0  0
   -2.1470   -1.7537    0.0000 C   0  0  0  0  0  0  0  0  0  0  0  0
   -1.8351   -3.2209    0.0000 C   0  0  0  0  0  0  0  0  0  0  0  0
   -2.9499   -4.2246    0.0000 O   0  0  0  0  0  0  0  0  0  0  0  0
   -0.4086   -3.6844    0.0000 C   0  0  0  0  0  0  0  0  0  0  0  0
   -0.0967   -5.1517    0.0000 C   0  0  0  0  0  0  0  0  0  0  0  0
   -1.2114   -6.1554    0.0000 C   0  0  0  0  0  0  0  0  0  0  0  0
   -0.8995   -7.6226    0.0000 C   0  0  0  0  0  0  0  0  0  0  0  0
   -0.5877   -9.0898    0.0000 C   0  0  0  0  0  0  0  0  0  0  0  0
   -0.2758  -10.5570    0.0000 Si  0  0  0  0  0  4  0  0  0  0  0  0
   -1.7430  -10.8689    0.0000 C   0  0  0  0  0  0  0  0  0  0  0  0
    1.1914  -10.2452    0.0000 C   0  0  0  0  0  0  0  0  0  0  0  0
    0.0361  -12.0242    0.0000 C   0  0  0  0  0  0  0  0  0  0  0  0
    0.7062   -2.6807    0.0000 C   0  0  0  0  0  0  0  0  0  0  0  0
    0.3943   -1.2135    0.0000 C   0  0  0  0  0  0  0  0  0  0  0  0
  1  2  1  0
  2  3  1  0
  3  4  2  0
  3  5  1  0
  5  6  1  0
  6  7  1  1
  6  8  1  0
  8  9  1  0
  9 10  1  0
 10 11  1  6
 10 12  1  0
 12 13  1  0
 13 14  2  0
 13 15  1  0
 15 16  1  0
 16 17  1  0
 17 18  1  0
 18 19  3  0
 19 20  1  0
 20 21  1  0
 20 22  1  0
 20 23  1  0
 15 24  2  0
 25 24  1  1
 25  6  1  0
 25 10  1  0
M  END
$$$$
20
     RDKit          2D

 10  9  0  0  0  0  0  0  0  0999 V2000
    0.0000    0.0000    0.0000 C   0  0  0  0  0  0  0  0  0  0  0  0
    1.2990    0.7500    0.0000 Si  0  0  0  0  0  4  0  0  0  0  0  0
    2.5981    1.5000    0.0000 C   0  0  0  0  0  0  0  0  0  0  0  0
    2.0490   -0.5490    0.0000 C   0  0  0  0  0  0  0  0  0  0  0  0
    0.5490    2.0490    0.0000 C   0  0  0  0  0  0  0  0  0  0  0  0
   -0.2010    3.3481    0.0000 C   0  0  0  0  0  0  0  0  0  0  0  0
   -0.9510    4.6471    0.0000 C   0  0  0  0  0  0  0  0  0  0  0  0
   -0.2010    5.9462    0.0000 C   0  0  0  0  0  0  0  0  0  0  0  0
   -0.9510    7.2452    0.0000 Mg  0  0  0  0  0  2  0  0  0  0  0  0
   -1.7010    8.5442    0.0000 Br  0  0  0  0  0  0  0  0  0  0  0  0
  1  2  1  0
  2  3  1  0
  2  4  1  0
  2  5  1  0
  5  6  3  0
  6  7  1  0
  7  8  1  0
  8  9  1  0
  9 10  1  0
M  END
$$$$
21
     RDKit          2D

 37 38  0  0  0  0  0  0  0  0999 V2000
    6.3586   -1.0803    0.0000 C   0  0  0  0  0  0  0  0  0  0  0  0
    4.9320   -1.5439    0.0000 O   0  0  0  0  0  0  0  0  0  0  0  0
    3.8173   -0.5402    0.0000 C   0  0  0  0  0  0  0  0  0  0  0  0
    4.1291    0.9271    0.0000 O   0  0  0  0  0  0  0  0  0  0  0  0
    2.3907   -1.0037    0.0000 C   0  0  0  0  0  0  0  0  0  0  0  0
    1.2760    0.0000    0.0000 C   0  0  0  0  0  0  0  0  0  0  0  0
    2.3907    1.0037    0.0000 C   0  0  0  0  0  0  0  0  0  0  0  0
    0.3943    1.2135    0.0000 C   0  0  0  0  0  0  0  0  0  0  0  0
   -1.0323    0.7500    0.0000 C   0  0  0  0  0  0  0  0  0  0  0  0
   -1.0323   -0.7500    0.0000 C   0  0  0  0  0  0  0  0  0  0  0  0
   -2.4026   -0.1399    0.0000 C   0  0  0  0  0  0  0  0  0  0  0  0
   -2.1470   -1.7537    0.0000 C   0  0  0  0  0  0  0  0  0  0  0  0
   -1.8351   -3.2209    0.0000 C   0  0  0  0  0  0  0  0  0  0  0  0
   -2.9499   -4.2246    0.0000 O   0  0  0  0  0  0  0  0  0  0  0  0
   -4.3764   -3.7611    0.0000 Si  0  0  0  0  0  4  0  0  0  0  0  0
   -4.8400   -5.1877    0.0000 C   0  0  0  0  0  0  0  0  0  0  0  0
   -3.9129   -2.3345    0.0000 C   0  0  0  0  0  0  0  0  0  0  0  0
   -5.8030   -3.2976    0.0000 C   0  0  0  0  0  0  0  0  0  0  0  0
   -0.4086   -3.6844    0.0000 C   0  0  0  0  0  0  0  0  0  0  0  0
   -0.0967   -5.1517    0.0000 C   0  0  0  0  0  0  0  0  0  0  0  0
   -1.2114   -6.1554    0.0000 C   0  0  0  0  0  0  0  0  0  0  0  0
   -0.8995   -7.6226    0.0000 C   0  0  0  0  0  0  0  0  0  0  0  0
   -0.5877   -9.0898    0.0000 C   0  0  0  0  0  0  0  0  0  0  0  0
   -0.2758  -10.5570    0.0000 Si  0  0  0  0  0  4  0  0  0  0  0  0
   -1.7430  -10.8689    0.0000 C   0  0  0  0  0  0  0  0  0  0  0  0
    1.1914  -10.2452    0.0000 C   0  0  0  0  0  0  0  0  0  0  0  0
    0.0361  -12.0242    0.0000 C   0  0  0  0  0  0  0  0  0  0  0  0
    0.7062   -2.6807    0.0000 C   0  0  0  0  0  0  0  0  0  0  0  0
    2.1328   -3.1443    0.0000 C   0  0  0  0  0  0  0  0  0  0  0  0
    2.4446   -4.6115    0.0000 C   0  0  0  0  0  0  0  0  0  0  0  0
    3.8712   -5.0750    0.0000 C   0  0  0  0  0  0  0  0  0  0  0  0
    5.2978   -5.5385    0.0000 C   0  0  0  0  0  0  0  0  0  0  0  0
    6.7244   -6.0021    0.0000 Si  0  0  0  0  0  4  0  0  0  0  0  0
    6.2608   -7.4287    0.0000 C   0  0  0  0  0  0  0  0  0  0  0  0
    7.1879   -4.5755    0.0000 C   0  0  0  0  0  0  0  0  0  0  0  0
    8.1510   -6.4656    0.0000 C   0  0  0  0  0  0  0  0  0  0  0  0
    0.3943   -1.2135    0.0000 C   0  0  0  0  0  0  0  0  0  0  0  0
  1  2  1  0
  2  3  1  0
  3  4  2  0
  3  5  1  0
  5  6  1  0
  6  7  1  1
  6  8  1  0
  8  9  1  0
  9 10  1  0
 10 11  1  6
 10 12  1  0
 12 13  1  0
 13 14  1  0
 14 15  1  0
 15 16  1  0
 15 17  1  0
 15 18  1  0
 13 19  2  0
 19 20  1  0
 20 21  1  0
 21 22  1  0
 22 23  3  0
 23 24  1  0
 24 25  1  0
 24 26  1  0
 24 27  1  0
 19 28  1  0
 28 29  1  6
 29 30  1  0
 30 31  1  0
 31 32  3  0
 32 33  1  0
 33 34  1  0
 33 35  1  0
 33 36  1  0
 37 28  1  1
 37  6  1  0
 37 10  1  0
M  END
$$$$
22
     RDKit          2D

 25 27  0  0  0  0  0  0  0  0999 V2000
    5.7997    1.0344    0.0000 C   0  0  0  0  0  0  0  0  0  0  0  0
    4.3324    0.7225    0.0000 C   0  0  0  0  0  0  0  0  0  0  0  0
    2.8652    0.4107    0.0000 C   0  0  0  0  0  0  0  0  0  0  0  0
    1.8615    1.5254    0.0000 C   0  0  0  0  0  0  0  0  0  0  0  0
    0.3943    1.2135    0.0000 C   0  0  0  0  0  0  0  0  0  0  0  0
    1.2760    0.0000    0.0000 C   0  0  0  0  0  0  0  0  0  0  0  0
    2.7314   -0.3630    0.0000 C   0  0  0  0  0  0  0  0  0  0  0  0
    0.3943   -1.2135    0.0000 C   0  0  0  0  0  0  0  0  0  0  0  0
   -1.0323   -0.7500    0.0000 C   0  0  0  0  0  0  0  0  0  0  0  0
   -1.0323    0.7500    0.0000 C   0  0  0  0  0  0  0  0  0  0  0  0
   -2.1470    1.7537    0.0000 C   0  0  0  0  0  0  0  0  0  0  0  0
   -3.6388    1.5969    0.0000 C   0  0  0  0  0  0  0  0  0  0  0  0
   -3.3269    0.1297    0.0000 C   0  0  0  0  0  0  0  0  0  0  0  0
   -5.0654    1.1334    0.0000 C   0  0  0  0  0  0  0  0  0  0  0  0
   -6.1801    2.1371    0.0000 C   0  0  0  0  0  0  0  0  0  0  0  0
   -5.8682    3.6043    0.0000 O   0  0  0  0  0  0  0  0  0  0  0  0
   -7.6067    1.6735    0.0000 O   0  0  0  0  0  0  0  0  0  0  0  0
   -8.7214    2.6772    0.0000 C   0  0  0  0  0  0  0  0  0  0  0  0
   -4.2489    2.9672    0.0000 C   0  0  0  0  0  0  0  0  0  0  0  0
   -3.1342    3.9709    0.0000 C   0  0  0  0  0  0  0  0  0  0  0  0
   -1.8351    3.2209    0.0000 C   0  0  0  0  0  0  0  0  0  0  0  0
   -1.6783    4.7127    0.0000 C   0  0  0  0  0  0  0  0  0  0  0  0
   -0.4086    3.6844    0.0000 C   0  0  0  0  0  0  0  0  0  0  0  0
    0.7062    2.6807    0.0000 C   0  0  0  0  0  0  0  0  0  0  0  0
    2.1328    3.1443    0.0000 O   0  0  0  0  0  0  0  0  0  0  0  0
  1  2  3  0
  2  3  1  0
  3  4  1  0
  5  4  1  6
  5  6  1  0
  6  7  2  0
  6  8  1  0
  8  9  1  0
 10  9  1  1
 10 11  1  0
 11 12  1  6
 12 13  1  6
 12 14  1  0
 14 15  1  0
 15 16  2  0
 15 17  1  0
 17 18  1  0
 12 19  1  0
 19 20  1  0
 20 21  1  0
 21 22  1  1
 21 23  1  0
 23 24  1  0
 24 25  2  0
 10  5  1  0
 21 11  1  0
 24  5  1  0
M  END
$$$$
23
     RDKit          2D

 25 28  0  0  0  0  0  0  0  0999 V2000
    2.7760    0.0000    0.0000 C   0  0  0  0  0  0  0  0  0  0  0  0
   -0.0880   -1.4842    0.0000 C   0  0  0  0  0  0  0  0  0  0  0  0
   -0.2546   -0.7837    0.0000 C   0  0  0  0  0  0  0  0  0  0  0  0
   -0.8013   -1.2525    0.0000 C   0  0  0  0  0  0  0  0  0  0  0  0
   -1.0323   -0.7500    0.0000 C   0  0  0  0  0  0  0  0  0  0  0  0
   -2.1470   -1.7537    0.0000 C   0  0  0  0  0  0  0  0  0  0  0  0
   -3.6388   -1.5969    0.0000 C   0  0  0  0  0  0  0  0  0  0  0  0
   -3.3269   -0.1297    0.0000 C   0  0  0  0  0  0  0  0  0  0  0  0
   -5.0654   -1.1334    0.0000 C   0  0  0  0  0  0  0  0  0  0  0  0
   -5.3772    0.3338    0.0000 C   0  0  0  0  0  0  0  0  0  0  0  0
   -4.2625    1.3375    0.0000 O   0  0  0  0  0  0  0  0  0  0  0  0
   -6.8038    0.7974    0.0000 O   0  0  0  0  0  0  0  0  0  0  0  0
   -7.1157    2.2646    0.0000 C   0  0  0  0  0  0  0  0  0  0  0  0
   -4.2489   -2.9672    0.0000 C   0  0  0  0  0  0  0  0  0  0  0  0
   -3.1342   -3.9709    0.0000 C   0  0  0  0  0  0  0  0  0  0  0  0
   -1.8351   -3.2209    0.0000 C   0  0  0  0  0  0  0  0  0  0  0  0
   -1.6783   -4.7127    0.0000 C   0  0  0  0  0  0  0  0  0  0  0  0
   -0.4086   -3.6844    0.0000 C   0  0  0  0  0  0  0  0  0  0  0  0
    0.7062   -2.6807    0.0000 C   0  0  0  0  0  0  0  0  0  0  0  0
    1.1697   -4.1073    0.0000 O   0  0  0  0  0  0  0  0  0  0  0  0
    2.1979   -2.8375    0.0000 C   0  0  0  0  0  0  0  0  0  0  0  0
    2.9479   -4.1366    0.0000 C   0  0  0  0  0  0  0  0  0  0  0  0
    2.8081   -1.4672    0.0000 C   0  0  0  0  0  0  0  0  0  0  0  0
    1.6933   -0.4635    0.0000 C   0  0  0  0  0  0  0  0  0  0  0  0
    0.3943   -1.2135    0.0000 C   0  0  0  0  0  0  0  0  0  0  0  0
  1  2  2  0
  2  3  1  0
  3  4  1  0
  5  4  1  6
  5  6  1  0
  6  7  1  1
  7  8  1  1
  7  9  1  0
  9 10  1  0
 10 11  2  0
 10 12  1  0
 12 13  1  0
  7 14  1  0
 14 15  1  0
 15 16  1  0
 16 17  1  6
 16 18  1  0
 18 19  1  0
 19 20  1  6
 19 21  1  0
 21 22  2  0
 21 23  1  0
 23 24  1  0
 25 24  1  6
 25  2  1  0
 25  5  1  0
 16  6  1  0
 25 19  1  0
M  END
$$$$
24
     RDKit          2D

 25 28  0  0  0  0  0  0  0  0999 V2000
    6.3586   -1.0803    0.0000 C   0  0  0  0  0  0  0  0  0  0  0  0
    4.9320   -1.5439    0.0000 O   0  0  0  0  0  0  0  0  0  0  0  0
    3.8173   -0.5402    0.0000 C   0  0  0  0  0  0  0  0  0  0  0  0
    4.1291    0.9271    0.0000 O   0  0  0  0  0  0  0  0  0  0  0  0
    2.3907   -1.0037    0.0000 C   0  0  0  0  0  0  0  0  0  0  0  0
    1.2760    0.0000    0.0000 C   0  0  0  0  0  0  0  0  0  0  0  0
    2.3907    1.0037    0.0000 C   0  0  0  0  0  0  0  0  0  0  0  0
    0.3943    1.2135    0.0000 C   0  0  0  0  0  0  0  0  0  0  0  0
   -1.0323    0.7500    0.0000 C   0  0  0  0  0  0  0  0  0  0  0  0
   -1.0323   -0.7500    0.0000 C   0  0  0  0  0  0  0  0  0  0  0  0
   -2.4026   -0.1399    0.0000 C   0  0  0  0  0  0  0  0  0  0  0  0
   -2.1470   -1.7537    0.0000 C   0  0  0  0  0  0  0  0  0  0  0  0
   -1.8351   -3.2209    0.0000 C   0  0  0  0  0  0  0  0  0  0  0  0
   -3.3024   -2.9090    0.0000 O   0  0  0  0  0  0  0  0  0  0  0  0
   -2.7168   -4.4344    0.0000 C   0  0  0  0  0  0  0  0  0  0  0  0
   -4.2168   -4.4344    0.0000 C   0  0  0  0  0  0  0  0  0  0  0  0
   -1.8351   -5.6480    0.0000 C   0  0  0  0  0  0  0  0  0  0  0  0
   -0.4086   -5.1844    0.0000 C   0  0  0  0  0  0  0  0  0  0  0  0
   -0.4086   -3.6844    0.0000 C   0  0  0  0  0  0  0  0  0  0  0  0
   -0.4019   -3.1314    0.0000 C   0  0  0  0  0  0  0  0  0  0  0  0
   -0.5484   -6.3538    0.0000 C   0  0  0  0  0  0  0  0  0  0  0  0
    0.2882   -3.3374    0.0000 C   0  0  0  0  0  0  0  0  0  0  0  0
    0.1555   -2.6296    0.0000 C   0  0  0  0  0  0  0  0  0  0  0  0
    0.7062   -2.6807    0.0000 C   0  0  0  0  0  0  0  0  0  0  0  0
    0.3943   -1.2135    0.0000 C   0  0  0  0  0  0  0  0  0  0  0  0
  1  2  1  0
  2  3  1  0
  3  4  2  0
  3  5  1  0
  5  6  1  0
  6  7  1  1
  6  8  1  0
  8  9  1  0
  9 10  1  0
 10 11  1  6
 10 12  1  0
 12 13  1  0
 13 14  1  6
 13 15  1  0
 15 16  1  6
 15 17  1  0
 17 18  1  0
 19 18  1  6
 19 20  1  0
 20 21  1  1
 20 22  1  0
 22 23  1  0
 24 23  1  6
 24 25  1  0
 25  6  1  1
 25 10  1  0
 19 13  1  0
 24 19  1  0
M  END
$$$$
25
     RDKit          2D

 22 25  0  0  0  0  0  0  0  0999 V2000
    2.7760    0.0000    0.0000 C   0  0  0  0  0  0  0  0  0  0  0  0
    1.2760    0.0000    0.0000 C   0  0  0  0  0  0  0  0  0  0  0  0
    0.3943    1.2135    0.0000 C   0  0  0  0  0  0  0  0  0  0  0  0
   -1.0323    0.7500    0.0000 C   0  0  0  0  0  0  0  0  0  0  0  0
   -1.0323   -0.7500    0.0000 C   0  0  0  0  0  0  0  0  0  0  0  0
    0.3943   -1.2135    0.0000 C   0  0  0  0  0  0  0  0  0  0  0  0
    0.7062   -2.6807    0.0000 C   0  0  0  0  0  0  0  0  0  0  0  0
   -0.4086   -3.6844    0.0000 C   0  0  0  0  0  0  0  0  0  0  0  0
    0.9618   -4.2945    0.0000 C   0  0  0  0  0  0  0  0  0  0  0  0
   -0.4086   -5.1844    0.0000 C   0  0  0  0  0  0  0  0  0  0  0  0
   -1.8351   -5.6480    0.0000 C   0  0  0  0  0  0  0  0  0  0  0  0
   -2.7168   -4.4344    0.0000 C   0  0  0  0  0  0  0  0  0  0  0  0
   -3.8315   -5.4381    0.0000 C   0  0  0  0  0  0  0  0  0  0  0  0
   -3.8315   -3.4307    0.0000 C   0  0  0  0  0  0  0  0  0  0  0  0
   -5.2581   -3.8943    0.0000 C   0  0  0  0  0  0  0  0  0  0  0  0
   -6.3728   -2.8906    0.0000 O   0  0  0  0  0  0  0  0  0  0  0  0
   -1.8351   -3.2209    0.0000 C   0  0  0  0  0  0  0  0  0  0  0  0
   -2.1470   -1.7537    0.0000 C   0  0  0  0  0  0  0  0  0  0  0  0
   -1.5963   -1.8049    0.0000 C   0  0  0  0  0  0  0  0  0  0  0  0
   -1.7290   -1.0971    0.0000 C   0  0  0  0  0  0  0  0  0  0  0  0
   -1.0390   -1.3030    0.0000 C   0  0  0  0  0  0  0  0  0  0  0  0
   -0.8924    1.9194    0.0000 C   0  0  0  0  0  0  0  0  0  0  0  0
  2  1  1  6
  2  3  1  0
  3  4  1  0
  5  4  1  6
  5  6  1  0
  6  7  2  0
  7  8  1  0
  8  9  1  6
  8 10  1  0
 10 11  1  0
 11 12  1  0
 12 13  1  1
 12 14  1  0
 14 15  1  0
 15 16  2  0
 17 12  1  1
 17 18  1  0
 18 19  1  6
 19 20  1  0
 20 21  1  0
 21 22  1  1
  6  2  1  0
 17  8  1  0
 18  5  1  0
 21  5  1  0
M  END
$$$$
27
     RDKit          2D

 15 15  0  0  0  0  0  0  0  0999 V2000
    3.7500   -1.2990    0.0000 C   0  0  0  0  0  0  0  0  0  0  0  0
    3.0000    0.0000    0.0000 O   0  0  0  0  0  0  0  0  0  0  0  0
    1.5000    0.0000    0.0000 C   0  0  0  0  0  0  0  0  0  0  0  0
    0.7500   -1.2990    0.0000 C   0  0  0  0  0  0  0  0  0  0  0  0
   -0.7500   -1.2990    0.0000 C   0  0  0  0  0  0  0  0  0  0  0  0
   -1.5000    0.0000    0.0000 C   0  0  0  0  0  0  0  0  0  0  0  0
   -3.0000    0.0000    0.0000 C   0  0  0  0  0  0  0  0  0  0  0  0
   -3.7500    1.2990    0.0000 O   0  0  0  0  0  0  0  0  0  0  0  0
   -5.2500    1.2990    0.0000 C   0  0  0  0  0  0  0  0  0  0  0  0
   -6.0000    2.5981    0.0000 C   0  0  0  0  0  0  0  0  0  0  0  0
   -5.2500    3.8971    0.0000 C   0  0  0  0  0  0  0  0  0  0  0  0
   -7.5000    2.5981    0.0000 C   0  0  0  0  0  0  0  0  0  0  0  0
   -8.2500    3.8971    0.0000 I   0  0  0  0  0  0  0  0  0  0  0  0
   -0.7500    1.2990    0.0000 C   0  0  0  0  0  0  0  0  0  0  0  0
    0.7500    1.2990    0.0000 C   0  0  0  0  0  0  0  0  0  0  0  0
  1  2  1  0
  2  3  1  0
  3  4  1  0
  4  5  2  0
  5  6  1  0
  6  7  1  0
  7  8  1  0
  8  9  1  0
  9 10  1  0
 10 11  1  0
 10 12  2  0
 12 13  1  0
  6 14  2  0
 14 15  1  0
 15  3  2  0
M  END
$$$$
29
     RDKit          2D

 15 15  0  0  0  0  0  0  0  0999 V2000
    3.7500   -1.2990    0.0000 C   0  0  0  0  0  0  0  0  0  0  0  0
    3.0000    0.0000    0.0000 O   0  0  0  0  0  0  0  0  0  0  0  0
    1.5000    0.0000    0.0000 C   0  0  0  0  0  0  0  0  0  0  0  0
    0.7500   -1.2990    0.0000 C   0  0  0  0  0  0  0  0  0  0  0  0
   -0.7500   -1.2990    0.0000 C   0  0  0  0  0  0  0  0  0  0  0  0
   -1.5000    0.0000    0.0000 C   0  0  0  0  0  0  0  0  0  0  0  0
   -3.0000    0.0000    0.0000 C   0  0  0  0  0  0  0  0  0  0  0  0
   -3.7500    1.2990    0.0000 O   0  0  0  0  0  0  0  0  0  0  0  0
   -5.2500    1.2990    0.0000 C   0  0  0  0  0  0  0  0  0  0  0  0
   -6.0000    2.5981    0.0000 C   0  0  0  0  0  0  0  0  0  0  0  0
   -5.2500    3.8971    0.0000 C   0  0  0  0  0  0  0  0  0  0  0  0
   -7.5000    2.5981    0.0000 C   0  0  0  0  0  0  0  0  0  0  0  0
   -8.2500    1.2990    0.0000 I   0  0  0  0  0  0  0  0  0  0  0  0
   -0.7500    1.2990    0.0000 C   0  0  0  0  0  0  0  0  0  0  0  0
    0.7500    1.2990    0.0000 C   0  0  0  0  0  0  0  0  0  0  0  0
  1  2  1  0
  2  3  1  0
  3  4  1  0
  4  5  2  0
  5  6  1  0
  6  7  1  0
  7  8  1  0
  8  9  1  0
  9 10  1  0
 10 11  1  0
 10 12  2  0
 12 13  1  0
  6 14  2  0
 14 15  1  0
 15  3  2  0
M  END
$$$$
26
     RDKit          2D

 36 40  0  0  0  0  0  0  0  0999 V2000
   14.6837   -2.5365    0.0000 C   0  0  0  0  0  0  0  0  0  0  0  0
   14.6837   -1.0365    0.0000 O   0  0  0  0  0  0  0  0  0  0  0  0
   13.3847   -0.2865    0.0000 C   0  0  0  0  0  0  0  0  0  0  0  0
   12.0856   -1.0365    0.0000 C   0  0  0  0  0  0  0  0  0  0  0  0
   10.7866   -0.2865    0.0000 C   0  0  0  0  0  0  0  0  0  0  0  0
   10.7866    1.2135    0.0000 C   0  0  0  0  0  0  0  0  0  0  0  0
    9.4876    1.9635    0.0000 C   0  0  0  0  0  0  0  0  0  0  0  0
    8.1885    1.2135    0.0000 O   0  0  0  0  0  0  0  0  0  0  0  0
    6.8895    1.9635    0.0000 C   0  0  0  0  0  0  0  0  0  0  0  0
    5.5905    1.2135    0.0000 C   0  0  0  0  0  0  0  0  0  0  0  0
    5.5905   -0.2865    0.0000 C   0  0  0  0  0  0  0  0  0  0  0  0
    4.2914    1.9635    0.0000 C   0  0  0  0  0  0  0  0  0  0  0  0
    2.9924    1.2135    0.0000 C   0  0  0  0  0  0  0  0  0  0  0  0
    2.9924   -0.2865    0.0000 O   0  0  0  0  0  0  0  0  0  0  0  0
    1.6933    1.9635    0.0000 C   0  0  0  0  0  0  0  0  0  0  0  0
    0.3943    1.2135    0.0000 C   0  0  0  0  0  0  0  0  0  0  0  0
   -0.2158    2.5838    0.0000 C   0  0  0  0  0  0  0  0  0  0  0  0
    1.2760    0.0000    0.0000 C   0  0  0  0  0  0  0  0  0  0  0  0
    0.3943   -1.2135    0.0000 C   0  0  0  0  0  0  0  0  0  0  0  0
   -1.0323   -0.7500    0.0000 C   0  0  0  0  0  0  0  0  0  0  0  0
   -0.8755   -2.2418    0.0000 C   0  0  0  0  0  0  0  0  0  0  0  0
   -2.3313   -1.5000    0.0000 C   0  0  0  0  0  0  0  0  0  0  0  0
   -3.6304   -0.7500    0.0000 C   0  0  0  0  0  0  0  0  0  0  0  0
   -5.0569   -1.2135    0.0000 C   0  0  0  0  0  0  0  0  0  0  0  0
   -5.5205   -2.6401    0.0000 C   0  0  0  0  0  0  0  0  0  0  0  0
   -5.9386    0.0000    0.0000 C   0  0  0  0  0  0  0  0  0  0  0  0
   -5.0569    1.2135    0.0000 C   0  0  0  0  0  0  0  0  0  0  0  0
   -3.6304    0.7500    0.0000 C   0  0  0  0  0  0  0  0  0  0  0  0
   -3.1024    0.5855    0.0000 C   0  0  0  0  0  0  0  0  0  0  0  0
   -6.2123    1.4418    0.0000 C   0  0  0  0  0  0  0  0  0  0  0  0
   -3.0850    1.3054    0.0000 C   0  0  0  0  0  0  0  0  0  0  0  0
   -2.4528    0.9605    0.0000 C   0  0  0  0  0  0  0  0  0  0  0  0
   -2.3313    1.5000    0.0000 C   0  0  0  0  0  0  0  0  0  0  0  0
   -1.0323    0.7500    0.0000 C   0  0  0  0  0  0  0  0  0  0  0  0
   12.0856    1.9635    0.0000 C   0  0  0  0  0  0  0  0  0  0  0  0
   13.3847    1.2135    0.0000 C   0  0  0  0  0  0  0  0  0  0  0  0
  1  2  1  0
  2  3  1  0
  3  4  1  0
  4  5  2  0
  5  6  1  0
  6  7  1  0
  7  8  1  0
  8  9  1  0
  9 10  1  0
 10 11  1  0
 10 12  2  0
 12 13  1  0
 13 14  1  0
 13 15  1  0
 15 16  1  0
 16 17  1  6
 16 18  1  0
 18 19  1  0
 19 20  1  0
 20 21  1  1
 20 22  1  0
 22 23  2  0
 23 24  1  0
 24 25  1  1
 24 26  1  0
 26 27  1  0
 28 27  1  1
 28 29  1  0
 29 30  1  6
 29 31  1  0
 31 32  1  0
 33 32  1  1
 33 34  1  0
  6 35  2  0
 35 36  1  0
 36  3  2  0
 34 16  1  6
 34 20  1  0
 28 23  1  0
 33 28  1  0
M  END
$$$$
17-epi-26
     RDKit          2D

 36 40  0  0  0  0  0  0  0  0999 V2000
   14.6837   -2.5365    0.0000 C   0  0  0  0  0  0  0  0  0  0  0  0
   14.6837   -1.0365    0.0000 O   0  0  0  0  0  0  0  0  0  0  0  0
   13.3847   -0.2865    0.0000 C   0  0  0  0  0  0  0  0  0  0  0  0
   12.0856   -1.0365    0.0000 C   0  0  0  0  0  0  0  0  0  0  0  0
   10.7866   -0.2865    0.0000 C   0  0  0  0  0  0  0  0  0  0  0  0
   10.7866    1.2135    0.0000 C   0  0  0  0  0  0  0  0  0  0  0  0
    9.4876    1.9635    0.0000 C   0  0  0  0  0  0  0  0  0  0  0  0
    8.1885    1.2135    0.0000 O   0  0  0  0  0  0  0  0  0  0  0  0
    6.8895    1.9635    0.0000 C   0  0  0  0  0  0  0  0  0  0  0  0
    5.5905    1.2135    0.0000 C   0  0  0  0  0  0  0  0  0  0  0  0
    5.5905   -0.2865    0.0000 C   0  0  0  0  0  0  0  0  0  0  0  0
    4.2914    1.9635    0.0000 C   0  0  0  0  0  0  0  0  0  0  0  0
    2.9924    1.2135    0.0000 C   0  0  0  0  0  0  0  0  0  0  0  0
    2.9924   -0.2865    0.0000 O   0  0  0  0  0  0  0  0  0  0  0  0
    1.6933    1.9635    0.0000 C   0  0  0  0  0  0  0  0  0  0  0  0
    0.3943    1.2135    0.0000 C   0  0  0  0  0  0  0  0  0  0  0  0
   -0.2158    2.5838    0.0000 C   0  0  0  0  0  0  0  0  0  0  0  0
    1.2760    0.0000    0.0000 C   0  0  0  0  0  0  0  0  0  0  0  0
    0.3943   -1.2135    0.0000 C   0  0  0  0  0  0  0  0  0  0  0  0
   -1.0323   -0.7500    0.0000 C   0  0  0  0  0  0  0  0  0  0  0  0
   -0.8755   -2.2418    0.0000 C   0  0  0  0  0  0  0  0  0  0  0  0
   -2.3313   -1.5000    0.0000 C   0  0  0  0  0  0  0  0  0  0  0  0
   -3.6304   -0.7500    0.0000 C   0  0  0  0  0  0  0  0  0  0  0  0
   -5.0569   -1.2135    0.0000 C   0  0  0  0  0  0  0  0  0  0  0  0
   -5.5205   -2.6401    0.0000 C   0  0  0  0  0  0  0  0  0  0  0  0
   -5.9386    0.0000    0.0000 C   0  0  0  0  0  0  0  0  0  0  0  0
   -5.0569    1.2135    0.0000 C   0  0  0  0  0  0  0  0  0  0  0  0
   -3.6304    0.7500    0.0000 C   0  0  0  0  0  0  0  0  0  0  0  0
   -3.1024    0.5855    0.0000 C   0  0  0  0  0  0  0  0  0  0  0  0
   -6.2123    1.4418    0.0000 C   0  0  0  0  0  0  0  0  0  0  0  0
   -3.0850    1.3054    0.0000 C   0  0  0  0  0  0  0  0  0  0  0  0
   -2.4528    0.9605    0.0000 C   0  0  0  0  0  0  0  0  0  0  0  0
   -2.3313    1.5000    0.0000 C   0  0  0  0  0  0  0  0  0  0  0  0
   -1.0323    0.7500    0.0000 C   0  0  0  0  0  0  0  0  0  0  0  0
   12.0856    1.9635    0.0000 C   0  0  0  0  0  0  0  0  0  0  0  0
   13.3847    1.2135    0.0000 C   0  0  0  0  0  0  0  0  0  0  0  0
  1  2  1  0
  2  3  1  0
  3  4  1  0
  4  5  2  0
  5  6  1  0
  6  7  1  0
  7  8  1  0
  8  9  1  0
  9 10  1  0
 10 11  1  0
 10 12  2  0
 12 13  1  0
 13 14  1  0
 13 15  1  0
 15 16  1  0
 16 17  1  6
 16 18  1  0
 18 19  1  0
 19 20  1  0
 20 21  1  1
 20 22  1  0
 22 23  2  0
 23 24  1  0
 24 25  1  1
 24 26  1  0
 26 27  1  0
 28 27  1  1
 28 29  1  0
 29 30  1  6
 29 31  1  0
 31 32  1  0
 33 32  1  1
 33 34  1  0
  6 35  2  0
 35 36  1  0
 36  3  2  0
 34 16  1  6
 34 20  1  0
 28 23  1  0
 33 28  1  0
M  END
$$$$
30
     RDKit          2D

 36 40  0  0  0  0  0  0  0  0999 V2000
   12.0856   -7.0365    0.0000 C   0  0  0  0  0  0  0  0  0  0  0  0
   12.0856   -5.5365    0.0000 O   0  0  0  0  0  0  0  0  0  0  0  0
   10.7866   -4.7865    0.0000 C   0  0  0  0  0  0  0  0  0  0  0  0
    9.4876   -5.5365    0.0000 C   0  0  0  0  0  0  0  0  0  0  0  0
    8.1885   -4.7865    0.0000 C   0  0  0  0  0  0  0  0  0  0  0  0
    8.1885   -3.2865    0.0000 C   0  0  0  0  0  0  0  0  0  0  0  0
    6.8895   -2.5365    0.0000 C   0  0  0  0  0  0  0  0  0  0  0  0
    6.8895   -1.0365    0.0000 O   0  0  0  0  0  0  0  0  0  0  0  0
    5.5905   -0.2865    0.0000 C   0  0  0  0  0  0  0  0  0  0  0  0
    5.5905    1.2135    0.0000 C   0  0  0  0  0  0  0  0  0  0  0  0
    6.8895    1.9635    0.0000 C   0  0  0  0  0  0  0  0  0  0  0  0
    4.2914    1.9635    0.0000 C   0  0  0  0  0  0  0  0  0  0  0  0
    2.9924    1.2135    0.0000 C   0  0  0  0  0  0  0  0  0  0  0  0
    2.9924   -0.2865    0.0000 O   0  0  0  0  0  0  0  0  0  0  0  0
    1.6933    1.9635    0.0000 C   0  0  0  0  0  0  0  0  0  0  0  0
    0.3943    1.2135    0.0000 C   0  0  0  0  0  0  0  0  0  0  0  0
   -0.2158    2.5838    0.0000 C   0  0  0  0  0  0  0  0  0  0  0  0
    1.2760    0.0000    0.0000 C   0  0  0  0  0  0  0  0  0  0  0  0
    0.3943   -1.2135    0.0000 C   0  0  0  0  0  0  0  0  0  0  0  0
   -1.0323   -0.7500    0.0000 C   0  0  0  0  0  0  0  0  0  0  0  0
   -0.8755   -2.2418    0.0000 C   0  0  0  0  0  0  0  0  0  0  0  0
   -2.3313   -1.5000    0.0000 C   0  0  0  0  0  0  0  0  0  0  0  0
   -3.6304   -0.7500    0.0000 C   0  0  0  0  0  0  0  0  0  0  0  0
   -5.0569   -1.2135    0.0000 C   0  0  0  0  0  0  0  0  0  0  0  0
   -5.5205   -2.6401    0.0000 C   0  0  0  0  0  0  0  0  0  0  0  0
   -5.9386    0.0000    0.0000 C   0  0  0  0  0  0  0  0  0  0  0  0
   -5.0569    1.2135    0.0000 C   0  0  0  0  0  0  0  0  0  0  0  0
   -3.6304    0.7500    0.0000 C   0  0  0  0  0  0  0  0  0  0  0  0
   -3.1024    0.5855    0.0000 C   0  0  0  0  0  0  0  0  0  0  0  0
   -6.2123    1.4418    0.0000 C   0  0  0  0  0  0  0  0  0  0  0  0
   -3.0850    1.3054    0.0000 C   0  0  0  0  0  0  0  0  0  0  0  0
   -2.4528    0.9605    0.0000 C   0  0  0  0  0  0  0  0  0  0  0  0
   -2.3313    1.5000    0.0000 C   0  0  0  0  0  0  0  0  0  0  0  0
   -1.0323    0.7500    0.0000 C   0  0  0  0  0  0  0  0  0  0  0  0
    9.4876   -2.5365    0.0000 C   0  0  0  0  0  0  0  0  0  0  0  0
   10.7866   -3.2865    0.0000 C   0  0  0  0  0  0  0  0  0  0  0  0
  1  2  1  0
  2  3  1  0
  3  4  1  0
  4  5  2  0
  5  6  1  0
  6  7  1  0
  7  8  1  0
  8  9  1  0
  9 10  1  0
 10 11  1  0
 10 12  2  0
 12 13  1  0
 13 14  1  6
 13 15  1  0
 15 16  1  0
 16 17  1  6
 16 18  1  0
 18 19  1  0
 19 20  1  0
 20 21  1  1
 20 22  1  0
 22 23  2  0
 23 24  1  0
 24 25  1  1
 24 26  1  0
 26 27  1  0
 28 27  1  1
 28 29  1  0
 29 30  1  6
 29 31  1  0
 31 32  1  0
 33 32  1  1
 33 34  1  0
  6 35  2  0
 35 36  1  0
 36  3  2  0
 34 16  1  6
 34 20  1  0
 28 23  1  0
 33 28  1  0
M  END
$$$$
17-epi-30
     RDKit          2D

 36 40  0  0  0  0  0  0  0  0999 V2000
   12.0856   -7.0365    0.0000 C   0  0  0  0  0  0  0  0  0  0  0  0
   12.0856   -5.5365    0.0000 O   0  0  0  0  0  0  0  0  0  0  0  0
   10.7866   -4.7865    0.0000 C   0  0  0  0  0  0  0  0  0  0  0  0
    9.4876   -5.5365    0.0000 C   0  0  0  0  0  0  0  0  0  0  0  0
    8.1885   -4.7865    0.0000 C   0  0  0  0  0  0  0  0  0  0  0  0
    8.1885   -3.2865    0.0000 C   0  0  0  0  0  0  0  0  0  0  0  0
    6.8895   -2.5365    0.0000 C   0  0  0  0  0  0  0  0  0  0  0  0
    6.8895   -1.0365    0.0000 O   0  0  0  0  0  0  0  0  0  0  0  0
    5.5905   -0.2865    0.0000 C   0  0  0  0  0  0  0  0  0  0  0  0
    5.5905    1.2135    0.0000 C   0  0  0  0  0  0  0  0  0  0  0  0
    6.8895    1.9635    0.0000 C   0  0  0  0  0  0  0  0  0  0  0  0
    4.2914    1.9635    0.0000 C   0  0  0  0  0  0  0  0  0  0  0  0
    2.9924    1.2135    0.0000 C   0  0  0  0  0  0  0  0  0  0  0  0
    2.9924   -0.2865    0.0000 O   0  0  0  0  0  0  0  0  0  0  0  0
    1.6933    1.9635    0.0000 C   0  0  0  0  0  0  0  0  0  0  0  0
    0.3943    1.2135    0.0000 C   0  0  0  0  0  0  0  0  0  0  0  0
   -0.2158    2.5838    0.0000 C   0  0  0  0  0  0  0  0  0  0  0  0
    1.2760    0.0000    0.0000 C   0  0  0  0  0  0  0  0  0  0  0  0
    0.3943   -1.2135    0.0000 C   0  0  0  0  0  0  0  0  0  0  0  0
   -1.0323   -0.7500    0.0000 C   0  0  0  0  0  0  0  0  0  0  0  0
   -0.8755   -2.2418    0.0000 C   0  0  0  0  0  0  0  0  0  0  0  0
   -2.3313   -1.5000    0.0000 C   0  0  0  0  0  0  0  0  0  0  0  0
   -3.6304   -0.7500    0.0000 C   0  0  0  0  0  0  0  0  0  0  0  0
   -5.0569   -1.2135    0.0000 C   0  0  0  0  0  0  0  0  0  0  0  0
   -5.5205   -2.6401    0.0000 C   0  0  0  0  0  0  0  0  0  0  0  0
   -5.9386    0.0000    0.0000 C   0  0  0  0  0  0  0  0  0  0  0  0
   -5.0569    1.2135    0.0000 C   0  0  0  0  0  0  0  0  0  0  0  0
   -3.6304    0.7500    0.0000 C   0  0  0  0  0  0  0  0  0  0  0  0
   -3.1024    0.5855    0.0000 C   0  0  0  0  0  0  0  0  0  0  0  0
   -6.2123    1.4418    0.0000 C   0  0  0  0  0  0  0  0  0  0  0  0
   -3.0850    1.3054    0.0000 C   0  0  0  0  0  0  0  0  0  0  0  0
   -2.4528    0.9605    0.0000 C   0  0  0  0  0  0  0  0  0  0  0  0
   -2.3313    1.5000    0.0000 C   0  0  0  0  0  0  0  0  0  0  0  0
   -1.0323    0.7500    0.0000 C   0  0  0  0  0  0  0  0  0  0  0  0
    9.4876   -2.5365    0.0000 C   0  0  0  0  0  0  0  0  0  0  0  0
   10.7866   -3.2865    0.0000 C   0  0  0  0  0  0  0  0  0  0  0  0
  1  2  1  0
  2  3  1  0
  3  4  1  0
  4  5  2  0
  5  6  1  0
  6  7  1  0
  7  8  1  0
  8  9  1  0
  9 10  1  0
 10 11  1  0
 10 12  2  0
 12 13  1  0
 13 14  1  1
 13 15  1  0
 15 16  1  0
 16 17  1  6
 16 18  1  0
 18 19  1  0
 19 20  1  0
 20 21  1  1
 20 22  1  0
 22 23  2  0
 23 24  1  0
 24 25  1  1
 24 26  1  0
 26 27  1  0
 28 27  1  1
 28 29  1  0
 29 30  1  6
 29 31  1  0
 31 32  1  0
 33 32  1  1
 33 34  1  0
  6 35  2  0
 35 36  1  0
 36  3  2  0
 34 16  1  6
 34 20  1  0
 28 23  1  0
 33 28  1  0
M  END
$$$$
31
     RDKit          2D

 38 42  0  0  0  0  0  0  0  0999 V2000
   15.3405    2.5126    0.0000 C   0  0  0  0  0  0  0  0  0  0  0  0
   14.5905    3.8116    0.0000 O   0  0  0  0  0  0  0  0  0  0  0  0
   13.0905    3.8116    0.0000 C   0  0  0  0  0  0  0  0  0  0  0  0
   12.3405    2.5126    0.0000 C   0  0  0  0  0  0  0  0  0  0  0  0
   10.8405    2.5126    0.0000 C   0  0  0  0  0  0  0  0  0  0  0  0
   10.0905    3.8116    0.0000 C   0  0  0  0  0  0  0  0  0  0  0  0
    8.5905    3.8116    0.0000 C   0  0  0  0  0  0  0  0  0  0  0  0
    7.8405    2.5126    0.0000 O   0  0  0  0  0  0  0  0  0  0  0  0
    6.3405    2.5126    0.0000 C   0  0  0  0  0  0  0  0  0  0  0  0
    5.5905    1.2135    0.0000 C   0  0  0  0  0  0  0  0  0  0  0  0
    4.8405   -0.0855    0.0000 C   0  0  0  0  0  0  0  0  0  0  0  0
    6.8895    0.4635    0.0000 O   0  0  0  0  0  0  0  0  0  0  0  0
    4.2914    1.9635    0.0000 C   0  0  0  0  0  0  0  0  0  0  0  0
    4.2914    3.4635    0.0000 O   0  0  0  0  0  0  0  0  0  0  0  0
    2.9924    1.2135    0.0000 C   0  0  0  0  0  0  0  0  0  0  0  0
    2.9924   -0.2865    0.0000 O   0  0  0  0  0  0  0  0  0  0  0  0
    1.6933    1.9635    0.0000 C   0  0  0  0  0  0  0  0  0  0  0  0
    0.3943    1.2135    0.0000 C   0  0  0  0  0  0  0  0  0  0  0  0
   -0.2158    2.5838    0.0000 C   0  0  0  0  0  0  0  0  0  0  0  0
    1.2760    0.0000    0.0000 C   0  0  0  0  0  0  0  0  0  0  0  0
    0.3943   -1.2135    0.0000 C   0  0  0  0  0  0  0  0  0  0  0  0
   -1.0323   -0.7500    0.0000 C   0  0  0  0  0  0  0  0  0  0  0  0
   -0.8755   -2.2418    0.0000 C   0  0  0  0  0  0  0  0  0  0  0  0
   -2.3313   -1.5000    0.0000 C   0  0  0  0  0  0  0  0  0  0  0  0
   -3.6304   -0.7500    0.0000 C   0  0  0  0  0  0  0  0  0  0  0  0
   -5.0569   -1.2135    0.0000 C   0  0  0  0  0  0  0  0  0  0  0  0
   -5.5205   -2.6401    0.0000 C   0  0  0  0  0  0  0  0  0  0  0  0
   -5.9386    0.0000    0.0000 C   0  0  0  0  0  0  0  0  0  0  0  0
   -5.0569    1.2135    0.0000 C   0  0  0  0  0  0  0  0  0  0  0  0
   -3.6304    0.7500    0.0000 C   0  0  0  0  0  0  0  0  0  0  0  0
   -3.1024    0.5855    0.0000 C   0  0  0  0  0  0  0  0  0  0  0  0
   -6.2123    1.4418    0.0000 C   0  0  0  0  0  0  0  0  0  0  0  0
   -3.0850    1.3054    0.0000 C   0  0  0  0  0  0  0  0  0  0  0  0
   -2.4528    0.9605    0.0000 C   0  0  0  0  0  0  0  0  0  0  0  0
   -2.3313    1.5000    0.0000 C   0  0  0  0  0  0  0  0  0  0  0  0
   -1.0323    0.7500    0.0000 C   0  0  0  0  0  0  0  0  0  0  0  0
   10.8405    5.1106    0.0000 C   0  0  0  0  0  0  0  0  0  0  0  0
   12.3405    5.1106    0.0000 C   0  0  0  0  0  0  0  0  0  0  0  0
  1  2  1  0
  2  3  1  0
  3  4  1  0
  4  5  2  0
  5  6  1  0
  6  7  1  0
  7  8  1  0
  8  9  1  0
  9 10  1  0
 10 11  1  1
 10 12  1  0
 10 13  1  0
 13 14  1  1
 13 15  1  0
 15 16  1  6
 15 17  1  0
 17 18  1  0
 18 19  1  6
 18 20  1  0
 20 21  1  0
 21 22  1  0
 22 23  1  1
 22 24  1  0
 24 25  2  0
 25 26  1  0
 26 27  1  1
 26 28  1  0
 28 29  1  0
 30 29  1  1
 30 31  1  0
 31 32  1  6
 31 33  1  0
 33 34  1  0
 35 34  1  1
 35 36  1  0
  6 37  2  0
 37 38  1  0
 38  3  2  0
 36 18  1  6
 36 22  1  0
 30 25  1  0
 35 30  1  0
M  END
$$$$
6a
     RDKit          2D

 29 32  0  0  0  0  0  0  0  0999 V2000
    2.7760    0.0000    0.0000 C   0  0  0  0  0  0  0  0  0  0  0  0
    1.2760    0.0000    0.0000 C   0  0  0  0  0  0  0  0  0  0  0  0
    0.3943    1.2135    0.0000 C   0  0  0  0  0  0  0  0  0  0  0  0
   -1.0323    0.7500    0.0000 C   0  0  0  0  0  0  0  0  0  0  0  0
   -1.0323   -0.7500    0.0000 C   0  0  0  0  0  0  0  0  0  0  0  0
    0.3943   -1.2135    0.0000 C   0  0  0  0  0  0  0  0  0  0  0  0
    0.7062   -2.6807    0.0000 C   0  0  0  0  0  0  0  0  0  0  0  0
   -0.4086   -3.6844    0.0000 C   0  0  0  0  0  0  0  0  0  0  0  0
    0.9618   -4.2945    0.0000 C   0  0  0  0  0  0  0  0  0  0  0  0
   -0.4086   -5.1844    0.0000 C   0  0  0  0  0  0  0  0  0  0  0  0
   -1.8351   -5.6480    0.0000 C   0  0  0  0  0  0  0  0  0  0  0  0
   -2.7168   -4.4344    0.0000 C   0  0  0  0  0  0  0  0  0  0  0  0
   -3.8315   -5.4381    0.0000 C   0  0  0  0  0  0  0  0  0  0  0  0
   -3.8315   -3.4307    0.0000 C   0  0  0  0  0  0  0  0  0  0  0  0
   -5.2581   -3.8943    0.0000 C   0  0  0  0  0  0  0  0  0  0  0  0
   -5.5700   -5.3615    0.0000 O   0  0  0  0  0  0  0  0  0  0  0  0
   -6.3728   -2.8906    0.0000 C   0  0  0  0  0  0  0  0  0  0  0  0
   -6.0610   -1.4234    0.0000 O   0  0  0  0  0  0  0  0  0  0  0  0
   -7.7994   -3.3541    0.0000 C   0  0  0  0  0  0  0  0  0  0  0  0
   -7.3359   -4.7807    0.0000 C   0  0  0  0  0  0  0  0  0  0  0  0
   -9.2260   -3.8176    0.0000 O   0  0  0  0  0  0  0  0  0  0  0  0
   -8.2629   -1.9275    0.0000 C   0  0  0  0  0  0  0  0  0  0  0  0
   -9.7302   -1.6156    0.0000 O   0  0  0  0  0  0  0  0  0  0  0  0
   -1.8351   -3.2209    0.0000 C   0  0  0  0  0  0  0  0  0  0  0  0
   -2.1470   -1.7537    0.0000 C   0  0  0  0  0  0  0  0  0  0  0  0
   -1.5963   -1.8049    0.0000 C   0  0  0  0  0  0  0  0  0  0  0  0
   -1.7290   -1.0971    0.0000 C   0  0  0  0  0  0  0  0  0  0  0  0
   -1.0390   -1.3030    0.0000 C   0  0  0  0  0  0  0  0  0  0  0  0
   -0.8924    1.9194    0.0000 C   0  0  0  0  0  0  0  0  0  0  0  0
  2  1  1  6
  2  3  1  0
  3  4  1  0
  5  4  1  6
  5  6  1  0
  6  7  2  0
  7  8  1  0
  8  9  1  6
  8 10  1  0
 10 11  1  0
 11 12  1  0
 12 13  1  1
 12 14  1  0
 14 15  1  0
 15 16  1  1
 15 17  1  0
 17 18  1  6
 17 19  1  0
 19 20  1  6
 19 21  1  0
 19 22  1  0
 22 23  1  0
 24 12  1  1
 24 25  1  0
 25 26  1  6
 26 27  1  0
 27 28  1  0
 28 29  1  1
  6  2  1  0
 24  8  1  0
 25  5  1  0
 28  5  1  0
M  END
$$$$
32
     RDKit          2D

 38 41  0  0  0  0  0  0  0  0999 V2000
   10.2201   -4.5572    0.0000 C   0  0  0  0  0  0  0  0  0  0  0  0
    8.7529   -4.2454    0.0000 C   0  0  0  0  0  0  0  0  0  0  0  0
    7.7492   -5.3601    0.0000 O   0  0  0  0  0  0  0  0  0  0  0  0
    8.2893   -2.8188    0.0000 O   0  0  0  0  0  0  0  0  0  0  0  0
    6.8221   -2.5069    0.0000 C   0  0  0  0  0  0  0  0  0  0  0  0
    6.3586   -1.0803    0.0000 C   0  0  0  0  0  0  0  0  0  0  0  0
    6.0724    0.3921    0.0000 C   0  0  0  0  0  0  0  0  0  0  0  0
    7.7852   -0.6168    0.0000 O   0  0  0  0  0  0  0  0  0  0  0  0
    4.9320   -1.5439    0.0000 C   0  0  0  0  0  0  0  0  0  0  0  0
    4.6201   -3.0111    0.0000 O   0  0  0  0  0  0  0  0  0  0  0  0
    5.7348   -4.0148    0.0000 C   0  0  0  0  0  0  0  0  0  0  0  0
    5.4230   -5.4820    0.0000 C   0  0  0  0  0  0  0  0  0  0  0  0
    7.1614   -3.5513    0.0000 O   0  0  0  0  0  0  0  0  0  0  0  0
    3.8173   -0.5402    0.0000 C   0  0  0  0  0  0  0  0  0  0  0  0
    2.3907   -1.0037    0.0000 C   0  0  0  0  0  0  0  0  0  0  0  0
    1.2760    0.0000    0.0000 C   0  0  0  0  0  0  0  0  0  0  0  0
    2.3907    1.0037    0.0000 C   0  0  0  0  0  0  0  0  0  0  0  0
    0.3943    1.2135    0.0000 C   0  0  0  0  0  0  0  0  0  0  0  0
   -1.0323    0.7500    0.0000 C   0  0  0  0  0  0  0  0  0  0  0  0
   -1.0323   -0.7500    0.0000 C   0  0  0  0  0  0  0  0  0  0  0  0
   -2.4026   -0.1399    0.0000 C   0  0  0  0  0  0  0  0  0  0  0  0
   -2.1470   -1.7537    0.0000 C   0  0  0  0  0  0  0  0  0  0  0  0
   -1.8351   -3.2209    0.0000 C   0  0  0  0  0  0  0  0  0  0  0  0
   -2.7168   -4.4344    0.0000 C   0  0  0  0  0  0  0  0  0  0  0  0
   -4.2168   -4.4344    0.0000 C   0  0  0  0  0  0  0  0  0  0  0  0
   -1.8351   -5.6480    0.0000 C   0  0  0  0  0  0  0  0  0  0  0  0
   -0.4086   -5.1844    0.0000 C   0  0  0  0  0  0  0  0  0  0  0  0
   -0.4086   -3.6844    0.0000 C   0  0  0  0  0  0  0  0  0  0  0  0
   -0.4019   -3.1314    0.0000 C   0  0  0  0  0  0  0  0  0  0  0  0
   -0.5484   -6.3538    0.0000 C   0  0  0  0  0  0  0  0  0  0  0  0
    0.2882   -3.3374    0.0000 C   0  0  0  0  0  0  0  0  0  0  0  0
    0.1555   -2.6296    0.0000 C   0  0  0  0  0  0  0  0  0  0  0  0
    0.7062   -2.6807    0.0000 C   0  0  0  0  0  0  0  0  0  0  0  0
    0.3943   -1.2135    0.0000 C   0  0  0  0  0  0  0  0  0  0  0  0
    4.1291    0.9271    0.0000 O   0  0  0  0  0  0  0  0  0  0  0  0
    5.5557    1.3906    0.0000 C   0  0  0  0  0  0  0  0  0  0  0  0
    5.8676    2.8578    0.0000 C   0  0  0  0  0  0  0  0  0  0  0  0
    6.7845    0.5302    0.0000 O   0  0  0  0  0  0  0  0  0  0  0  0
  1  2  1  0
  2  3  2  0
  2  4  1  0
  4  5  1  0
  5  6  1  0
  6  7  1  6
  6  8  1  0
  6  9  1  0
  9 10  1  6
 10 11  1  0
 11 12  1  0
 11 13  2  0
  9 14  1  0
 14 15  1  1
 15 16  1  0
 16 17  1  1
 16 18  1  0
 18 19  1  0
 19 20  1  0
 20 21  1  6
 20 22  1  0
 22 23  2  0
 23 24  1  0
 24 25  1  6
 24 26  1  0
 26 27  1  0
 28 27  1  6
 28 29  1  0
 29 30  1  1
 29 31  1  0
 31 32  1  0
 33 32  1  6
 33 34  1  0
 14 35  1  0
 35 36  1  0
 36 37  1  0
 36 38  2  0
 34 16  1  1
 34 20  1  0
 28 23  1  0
 33 28  1  0
M  END
$$$$
original-polyol-1
     RDKit          2D

 29 32  0  0  0  0  0  0  0  0999 V2000
    2.7760    0.0000    0.0000 C   0  0  0  0  0  0  0  0  0  0  0  0
    1.2760    0.0000    0.0000 C   0  0  0  0  0  0  0  0  0  0  0  0
    0.3943    1.2135    0.0000 C   0  0  0  0  0  0  0  0  0  0  0  0
   -1.0323    0.7500    0.0000 C   0  0  0  0  0  0  0  0  0  0  0  0
   -1.0323   -0.7500    0.0000 C   0  0  0  0  0  0  0  0  0  0  0  0
    0.3943   -1.2135    0.0000 C   0  0  0  0  0  0  0  0  0  0  0  0
    0.7062   -2.6807    0.0000 C   0  0  0  0  0  0  0  0  0  0  0  0
   -0.4086   -3.6844    0.0000 C   0  0  0  0  0  0  0  0  0  0  0  0
    0.9618   -4.2945    0.0000 C   0  0  0  0  0  0  0  0  0  0  0  0
   -0.4086   -5.1844    0.0000 C   0  0  0  0  0  0  0  0  0  0  0  0
   -1.8351   -5.6480    0.0000 C   0  0  0  0  0  0  0  0  0  0  0  0
   -2.7168   -4.4344    0.0000 C   0  0  0  0  0  0  0  0  0  0  0  0
   -3.8315   -5.4381    0.0000 C   0  0  0  0  0  0  0  0  0  0  0  0
   -3.8315   -3.4307    0.0000 C   0  0  0  0  0  0  0  0  0  0  0  0
   -5.2581   -3.8943    0.0000 C   0  0  0  0  0  0  0  0  0  0  0  0
   -5.5700   -5.3615    0.0000 O   0  0  0  0  0  0  0  0  0  0  0  0
   -6.3728   -2.8906    0.0000 C   0  0  0  0  0  0  0  0  0  0  0  0
   -6.0610   -1.4234    0.0000 O   0  0  0  0  0  0  0  0  0  0  0  0
   -7.7994   -3.3541    0.0000 C   0  0  0  0  0  0  0  0  0  0  0  0
   -7.3359   -4.7807    0.0000 C   0  0  0  0  0  0  0  0  0  0  0  0
   -9.2260   -3.8176    0.0000 O   0  0  0  0  0  0  0  0  0  0  0  0
   -8.2629   -1.9275    0.0000 C   0  0  0  0  0  0  0  0  0  0  0  0
   -9.7302   -1.6156    0.0000 O   0  0  0  0  0  0  0  0  0  0  0  0
   -1.8351   -3.2209    0.0000 C   0  0  0  0  0  0  0  0  0  0  0  0
   -2.1470   -1.7537    0.0000 C   0  0  0  0  0  0  0  0  0  0  0  0
   -1.5963   -1.8049    0.0000 C   0  0  0  0  0  0  0  0  0  0  0  0
   -1.7290   -1.0971    0.0000 C   0  0  0  0  0  0  0  0  0  0  0  0
   -1.0390   -1.3030    0.0000 C   0  0  0  0  0  0  0  0  0  0  0  0
   -0.8924    1.9194    0.0000 C   0  0  0  0  0  0  0  0  0  0  0  0
  2  1  1  6
  2  3  1  0
  3  4  1  0
  5  4  1  6
  5  6  1  0
  6  7  2  0
  7  8  1  0
  8  9  1  6
  8 10  1  0
 10 11  1  0
 11 12  1  0
 12 13  1  1
 12 14  1  0
 14 15  1  0
 15 16  1  0
 15 17  1  0
 17 18  1  0
 17 19  1  0
 19 20  1  0
 19 21  1  0
 19 22  1  0
 22 23  1  0
 24 12  1  1
 24 25  1  0
 25 26  1  6
 26 27  1  0
 27 28  1  0
 28 29  1  1
  6  2  1  0
 24  8  1  0
 25  5  1  0
 28  5  1  0
M  END
$$$$
original-polyol-2
     RDKit          2D

 29 32  0  0  0  0  0  0  0  0999 V2000
    2.7760    0.0000    0.0000 C   0  0  0  0  0  0  0  0  0  0  0  0
    1.2760    0.0000    0.0000 C   0  0  0  0  0  0  0  0  0  0  0  0
    0.3943    1.2135    0.0000 C   0  0  0  0  0  0  0  0  0  0  0  0
   -1.0323    0.7500    0.0000 C   0  0  0  0  0  0  0  0  0  0  0  0
   -1.0323   -0.7500    0.0000 C   0  0  0  0  0  0  0  0  0  0  0  0
    0.3943   -1.2135    0.0000 C   0  0  0  0  0  0  0  0  0  0  0  0
    0.7062   -2.6807    0.0000 C   0  0  0  0  0  0  0  0  0  0  0  0
   -0.4086   -3.6844    0.0000 C   0  0  0  0  0  0  0  0  0  0  0  0
    0.9618   -4.2945    0.0000 C   0  0  0  0  0  0  0  0  0  0  0  0
   -0.4086   -5.1844    0.0000 C   0  0  0  0  0  0  0  0  0  0  0  0
   -1.8351   -5.6480    0.0000 C   0  0  0  0  0  0  0  0  0  0  0  0
   -2.7168   -4.4344    0.0000 C   0  0  0  0  0  0  0  0  0  0  0  0
   -3.8315   -5.4381    0.0000 C   0  0  0  0  0  0  0  0  0  0  0  0
   -3.8315   -3.4307    0.0000 C   0  0  0  0  0  0  0  0  0  0  0  0
   -5.2581   -3.8943    0.0000 C   0  0  0  0  0  0  0  0  0  0  0  0
   -5.5700   -5.3615    0.0000 O   0  0  0  0  0  0  0  0  0  0  0  0
   -6.3728   -2.8906    0.0000 C   0  0  0  0  0  0  0  0  0  0  0  0
   -6.0610   -1.4234    0.0000 O   0  0  0  0  0  0  0  0  0  0  0  0
   -7.7994   -3.3541    0.0000 C   0  0  0  0  0  0  0  0  0  0  0  0
   -7.3359   -4.7807    0.0000 C   0  0  0  0  0  0  0  0  0  0  0  0
   -9.2260   -3.8176    0.0000 O   0  0  0  0  0  0  0  0  0  0  0  0
   -8.2629   -1.9275    0.0000 C   0  0  0  0  0  0  0  0  0  0  0  0
   -9.7302   -1.6156    0.0000 O   0  0  0  0  0  0  0  0  0  0  0  0
   -1.8351   -3.2209    0.0000 C   0  0  0  0  0  0  0  0  0  0  0  0
   -2.1470   -1.7537    0.0000 C   0  0  0  0  0  0  0  0  0  0  0  0
   -1.5963   -1.8049    0.0000 C   0  0  0  0  0  0  0  0  0  0  0  0
   -1.7290   -1.0971    0.0000 C   0  0  0  0  0  0  0  0  0  0  0  0
   -1.0390   -1.3030    0.0000 C   0  0  0  0  0  0  0  0  0  0  0  0
   -0.8924    1.9194    0.0000 C   0  0  0  0  0  0  0  0  0  0  0  0
  2  1  1  6
  2  3  1  0
  3  4  1  0
  5  4  1  6
  5  6  1  0
  6  7  2  0
  7  8  1  0
  8  9  1  6
  8 10  1  0
 10 11  1  0
 11 12  1  0
 12 13  1  1
 12 14  1  0
 14 15  1  0
 15 16  1  0
 15 17  1  0
 17 18  1  0
 17 19  1  0
 19 20  1  0
 19 21  1  0
 19 22  1  0
 22 23  1  0
 24 12  1  1
 24 25  1  0
 25 26  1  6
 26 27  1  0
 27 28  1  0
 28 29  1  1
  6  2  1  0
 24  8  1  0
 25  5  1  0
 28  5  1  0
M  END
$$$$
original-polyol-3
     RDKit          2D

 29 32  0  0  0  0  0  0  0  0999 V2000
    2.7760    0.0000    0.0000 C   0  0  0  0  0  0  0  0  0  0  0  0
    1.2760    0.0000    0.0000 C   0  0  0  0  0  0  0  0  0  0  0  0
    0.3943    1.2135    0.0000 C   0  0  0  0  0  0  0  0  0  0  0  0
   -1.0323    0.7500    0.0000 C   0  0  0  0  0  0  0  0  0  0  0  0
   -1.0323   -0.7500    0.0000 C   0  0  0  0  0  0  0  0  0  0  0  0
    0.3943   -1.2135    0.0000 C   0  0  0  0  0  0  0  0  0  0  0  0
    0.7062   -2.6807    0.0000 C   0  0  0  0  0  0  0  0  0  0  0  0
   -0.4086   -3.6844    0.0000 C   0  0  0  0  0  0  0  0  0  0  0  0
    0.9618   -4.2945    0.0000 C   0  0  0  0  0  0  0  0  0  0  0  0
   -0.4086   -5.1844    0.0000 C   0  0  0  0  0  0  0  0  0  0  0  0
   -1.8351   -5.6480    0.0000 C   0  0  0  0  0  0  0  0  0  0  0  0
   -2.7168   -4.4344    0.0000 C   0  0  0  0  0  0  0  0  0  0  0  0
   -3.8315   -5.4381    0.0000 C   0  0  0  0  0  0  0  0  0  0  0  0
   -3.8315   -3.4307    0.0000 C   0  0  0  0  0  0  0  0  0  0  0  0
   -5.2581   -3.8943    0.0000 C   0  0  0  0  0  0  0  0  0  0  0  0
   -5.5700   -5.3615    0.0000 O   0  0  0  0  0  0  0  0  0  0  0  0
   -6.3728   -2.8906    0.0000 C   0  0  0  0  0  0  0  0  0  0  0  0
   -6.0610   -1.4234    0.0000 O   0  0  0  0  0  0  0  0  0  0  0  0
   -7.7994   -3.3541    0.0000 C   0  0  0  0  0  0  0  0  0  0  0  0
   -7.3359   -4.7807    0.0000 C   0  0  0  0  0  0  0  0  0  0  0  0
   -9.2260   -3.8176    0.0000 O   0  0  0  0  0  0  0  0  0  0  0  0
   -8.2629   -1.9275    0.0000 C   0  0  0  0  0  0  0  0  0  0  0  0
   -9.7302   -1.6156    0.0000 O   0  0  0  0  0  0  0  0  0  0  0  0
   -1.8351   -3.2209    0.0000 C   0  0  0  0  0  0  0  0  0  0  0  0
   -2.1470   -1.7537    0.0000 C   0  0  0  0  0  0  0  0  0  0  0  0
   -1.5963   -1.8049    0.0000 C   0  0  0  0  0  0  0  0  0  0  0  0
   -1.7290   -1.0971    0.0000 C   0  0  0  0  0  0  0  0  0  0  0  0
   -1.0390   -1.3030    0.0000 C   0  0  0  0  0  0  0  0  0  0  0  0
   -0.8924    1.9194    0.0000 C   0  0  0  0  0  0  0  0  0  0  0  0
  2  1  1  6
  2  3  1  0
  3  4  1  0
  5  4  1  6
  5  6  1  0
  6  7  2  0
  7  8  1  0
  8  9  1  6
  8 10  1  0
 10 11  1  0
 11 12  1  0
 12 13  1  1
 12 14  1  0
 14 15  1  0
 15 16  1  0
 15 17  1  0
 17 18  1  0
 17 19  1  0
 19 20  1  0
 19 21  1  0
 19 22  1  0
 22 23  1  0
 24 12  1  1
 24 25  1  0
 25 26  1  6
 26 27  1  0
 27 28  1  0
 28 29  1  1
  6  2  1  0
 24  8  1  0
 25  5  1  0
 28  5  1  0
M  END
$$$$
original-polyol-4
     RDKit          2D

 29 32  0  0  0  0  0  0  0  0999 V2000
    2.7760    0.0000    0.0000 C   0  0  0  0  0  0  0  0  0  0  0  0
    1.2760    0.0000    0.0000 C   0  0  0  0  0  0  0  0  0  0  0  0
    0.3943    1.2135    0.0000 C   0  0  0  0  0  0  0  0  0  0  0  0
   -1.0323    0.7500    0.0000 C   0  0  0  0  0  0  0  0  0  0  0  0
   -1.0323   -0.7500    0.0000 C   0  0  0  0  0  0  0  0  0  0  0  0
    0.3943   -1.2135    0.0000 C   0  0  0  0  0  0  0  0  0  0  0  0
    0.7062   -2.6807    0.0000 C   0  0  0  0  0  0  0  0  0  0  0  0
   -0.4086   -3.6844    0.0000 C   0  0  0  0  0  0  0  0  0  0  0  0
    0.9618   -4.2945    0.0000 C   0  0  0  0  0  0  0  0  0  0  0  0
   -0.4086   -5.1844    0.0000 C   0  0  0  0  0  0  0  0  0  0  0  0
   -1.8351   -5.6480    0.0000 C   0  0  0  0  0  0  0  0  0  0  0  0
   -2.7168   -4.4344    0.0000 C   0  0  0  0  0  0  0  0  0  0  0  0
   -3.8315   -5.4381    0.0000 C   0  0  0  0  0  0  0  0  0  0  0  0
   -3.8315   -3.4307    0.0000 C   0  0  0  0  0  0  0  0  0  0  0  0
   -5.2581   -3.8943    0.0000 C   0  0  0  0  0  0  0  0  0  0  0  0
   -5.5700   -5.3615    0.0000 O   0  0  0  0  0  0  0  0  0  0  0  0
   -6.3728   -2.8906    0.0000 C   0  0  0  0  0  0  0  0  0  0  0  0
   -6.0610   -1.4234    0.0000 O   0  0  0  0  0  0  0  0  0  0  0  0
   -7.7994   -3.3541    0.0000 C   0  0  0  0  0  0  0  0  0  0  0  0
   -7.3359   -4.7807    0.0000 C   0  0  0  0  0  0  0  0  0  0  0  0
   -9.2260   -3.8176    0.0000 O   0  0  0  0  0  0  0  0  0  0  0  0
   -8.2629   -1.9275    0.0000 C   0  0  0  0  0  0  0  0  0  0  0  0
   -9.7302   -1.6156    0.0000 O   0  0  0  0  0  0  0  0  0  0  0  0
   -1.8351   -3.2209    0.0000 C   0  0  0  0  0  0  0  0  0  0  0  0
   -2.1470   -1.7537    0.0000 C   0  0  0  0  0  0  0  0  0  0  0  0
   -1.5963   -1.8049    0.0000 C   0  0  0  0  0  0  0  0  0  0  0  0
   -1.7290   -1.0971    0.0000 C   0  0  0  0  0  0  0  0  0  0  0  0
   -1.0390   -1.3030    0.0000 C   0  0  0  0  0  0  0  0  0  0  0  0
   -0.8924    1.9194    0.0000 C   0  0  0  0  0  0  0  0  0  0  0  0
  2  1  1  6
  2  3  1  0
  3  4  1  0
  5  4  1  6
  5  6  1  0
  6  7  2  0
  7  8  1  0
  8  9  1  6
  8 10  1  0
 10 11  1  0
 11 12  1  0
 12 13  1  1
 12 14  1  0
 14 15  1  0
 15 16  1  0
 15 17  1  0
 17 18  1  0
 17 19  1  0
 19 20  1  0
 19 21  1  0
 19 22  1  0
 22 23  1  0
 24 12  1  1
 24 25  1  0
 25 26  1  6
 26 27  1  0
 27 28  1  0
 28 29  1  1
  6  2  1  0
 24  8  1  0
 25  5  1  0
 28  5  1  0
M  END
$$$$
