5
     RDKit          2D

 37 40  0  0  0  0  0  0  0  0999 V2000
   -8.2500    6.4952    0.0000 C   0  0  0  0  0  0  0  0  0  0  0  0
   -7.5000    5.1962    0.0000 C   0  0  0  0  0  0  0  0  0  0  0  0
   -6.0000    5.1962    0.0000 C   0  0  0  0  0  0  0  0  0  0  0  0
   -5.2500    3.8971    0.0000 C   0  0  0  0  0  0  0  0  0  0  0  0
   -3.7500    3.8971    0.0000 C   0  0  0  0  0  0  0  0  0  0  0  0
   -3.0000    5.1962    0.0000 O   0  0  0  0  0  0  0  0  0  0  0  0
   -3.0000    2.5981    0.0000 C   0  0  0  0  0  0  0  0  0  0  0  0
   -1.5000    2.5981    0.0000 C   0  0  0  0  0  0  0  0  0  0  0  0
   -0.7500    1.2990    0.0000 C   0  0  0  0  0  0  0  0  0  0  0  0
   -1.5000    0.0000    0.0000 C   0  0  0  0  0  0  0  0  0  0  0  0
   -0.7500   -1.2990    0.0000 C   0  0  0  0  0  0  0  0  0  0  0  0
    0.7500   -1.2990    0.0000 C   0  0  0  0  0  0  0  0  0  0  0  0
    1.5000   -0.0000    0.0000 C   0  0  0  0  0  0  0  0  0  0  0  0
    0.7500    1.2990    0.0000 C   0  0  0  0  0  0  0  0  0  0  0  0
    0.1399    2.6694    0.0000 C   0  0  0  0  0  0  0  0  0  0  0  0
    1.2546    3.6731    0.0000 C   0  0  0  0  0  0  0  0  0  0  0  0
    2.5537    2.9231    0.0000 C   0  0  0  0  0  0  0  0  0  0  0  0
    3.9240    3.5332    0.0000 C   0  0  0  0  0  0  0  0  0  0  0  0
    5.1375    2.6515    0.0000 O   0  0  0  0  0  0  0  0  0  0  0  0
    6.5078    3.2616    0.0000 C   0  0  0  0  0  0  0  0  0  0  0  0
    7.7213    2.3799    0.0000 C   0  0  0  0  0  0  0  0  0  0  0  0
    7.5645    0.8881    0.0000 C   0  0  0  0  0  0  0  0  0  0  0  0
    8.7781    0.0064    0.0000 C   0  0  0  0  0  0  0  0  0  0  0  0
   10.1484    0.6166    0.0000 C   0  0  0  0  0  0  0  0  0  0  0  0
   10.3052    2.1083    0.0000 C   0  0  0  0  0  0  0  0  0  0  0  0
    9.0917    2.9900    0.0000 C   0  0  0  0  0  0  0  0  0  0  0  0
    2.2418    1.4558    0.0000 N   0  0  0  0  0  0  0  0  0  0  0  0
    3.2455    0.3411    0.0000 S   0  0  0  0  0  0  0  0  0  0  0  0
    2.1308   -0.6626    0.0000 O   0  0  0  0  0  0  0  0  0  0  0  0
    4.3602    1.3448    0.0000 O   0  0  0  0  0  0  0  0  0  0  0  0
    4.2492   -0.7736    0.0000 C   0  0  0  0  0  0  0  0  0  0  0  0
    3.7856   -2.2002    0.0000 C   0  0  0  0  0  0  0  0  0  0  0  0
    4.7893   -3.3149    0.0000 C   0  0  0  0  0  0  0  0  0  0  0  0
    6.2566   -3.0030    0.0000 C   0  0  0  0  0  0  0  0  0  0  0  0
    7.2603   -4.1178    0.0000 C   0  0  0  0  0  0  0  0  0  0  0  0
    6.7201   -1.5765    0.0000 C   0  0  0  0  0  0  0  0  0  0  0  0
    5.7164   -0.4617    0.0000 C   0  0  0  0  0  0  0  0  0  0  0  0
  1  2  1  0
  2  3  1  0
  3  4  1  0
  4  5  1  0
  5  6  2  0
  5  7  1  0
  7  8  2  0
  9  8  1  1
  9 10  1  0
 10 11  1  0
 11 12  1  0
 12 13  1  0
 14 13  1  6
 14 15  1  0
 15 16  1  0
 16 17  1  0
 17 18  1  1
 18 19  1  0
 19 20  1  0
 20 21  1  0
 21 22  2  0
 22 23  1  0
 23 24  2  0
 24 25  1  0
 25 26  2  0
 17 27  1  0
 27 28  1  0
 28 29  2  0
 28 30  2  0
 28 31  1  0
 31 32  1  0
 32 33  2  0
 33 34  1  0
 34 35  1  0
 34 36  2  0
 36 37  1  0
 14  9  1  0
 26 21  1  0
 37 31  2  0
 27 14  1  0
M  END
$$$$
6
     RDKit          2D

 37 40  0  0  0  0  0  0  0  0999 V2000
   -8.2500    6.4952    0.0000 C   0  0  0  0  0  0  0  0  0  0  0  0
   -7.5000    5.1962    0.0000 C   0  0  0  0  0  0  0  0  0  0  0  0
   -6.0000    5.1962    0.0000 C   0  0  0  0  0  0  0  0  0  0  0  0
   -5.2500    3.8971    0.0000 C   0  0  0  0  0  0  0  0  0  0  0  0
   -3.7500    3.8971    0.0000 C   0  0  0  0  0  0  0  0  0  0  0  0
   -3.0000    5.1962    0.0000 O   0  0  0  0  0  0  0  0  0  0  0  0
   -3.0000    2.5981    0.0000 C   0  0  0  0  0  0  0  0  0  0  0  0
   -1.5000    2.5981    0.0000 C   0  0  0  0  0  0  0  0  0  0  0  0
   -0.7500    1.2990    0.0000 C   0  0  0  0  0  0  0  0  0  0  0  0
   -1.5000    0.0000    0.0000 C   0  0  0  0  0  0  0  0  0  0  0  0
   -0.7500   -1.2990    0.0000 C   0  0  0  0  0  0  0  0  0  0  0  0
    0.7500   -1.2990    0.0000 C   0  0  0  0  0  0  0  0  0  0  0  0
    1.5000   -0.0000    0.0000 C   0  0  0  0  0  0  0  0  0  0  0  0
    0.7500    1.2990    0.0000 C   0  0  0  0  0  0  0  0  0  0  0  0
    0.1399    2.6694    0.0000 C   0  0  0  0  0  0  0  0  0  0  0  0
    1.2546    3.6731    0.0000 C   0  0  0  0  0  0  0  0  0  0  0  0
    2.5537    2.9231    0.0000 C   0  0  0  0  0  0  0  0  0  0  0  0
    3.9240    3.5332    0.0000 C   0  0  0  0  0  0  0  0  0  0  0  0
    5.1375    2.6515    0.0000 O   0  0  0  0  0  0  0  0  0  0  0  0
    6.5078    3.2616    0.0000 C   0  0  0  0  0  0  0  0  0  0  0  0
    7.7213    2.3799    0.0000 C   0  0  0  0  0  0  0  0  0  0  0  0
    7.5645    0.8881    0.0000 C   0  0  0  0  0  0  0  0  0  0  0  0
    8.7781    0.0064    0.0000 C   0  0  0  0  0  0  0  0  0  0  0  0
   10.1484    0.6166    0.0000 C   0  0  0  0  0  0  0  0  0  0  0  0
   10.3052    2.1083    0.0000 C   0  0  0  0  0  0  0  0  0  0  0  0
    9.0917    2.9900    0.0000 C   0  0  0  0  0  0  0  0  0  0  0  0
    2.2418    1.4558    0.0000 N   0  0  0  0  0  0  0  0  0  0  0  0
    3.2455    0.3411    0.0000 S   0  0  0  0  0  0  0  0  0  0  0  0
    2.1308   -0.6626    0.0000 O   0  0  0  0  0  0  0  0  0  0  0  0
    4.3602    1.3448    0.0000 O   0  0  0  0  0  0  0  0  0  0  0  0
    4.2492   -0.7736    0.0000 C   0  0  0  0  0  0  0  0  0  0  0  0
    3.7856   -2.2002    0.0000 C   0  0  0  0  0  0  0  0  0  0  0  0
    4.7893   -3.3149    0.0000 C   0  0  0  0  0  0  0  0  0  0  0  0
    6.2566   -3.0030    0.0000 C   0  0  0  0  0  0  0  0  0  0  0  0
    7.2603   -4.1178    0.0000 C   0  0  0  0  0  0  0  0  0  0  0  0
    6.7201   -1.5765    0.0000 C   0  0  0  0  0  0  0  0  0  0  0  0
    5.7164   -0.4617    0.0000 C   0  0  0  0  0  0  0  0  0  0  0  0
  1  2  1  0
  2  3  1  0
  3  4  1  0
  4  5  1  0
  5  6  1  1
  5  7  1  0
  7  8  2  0
  9  8  1  1
  9 10  1  0
 10 11  1  0
 11 12  1  0
 12 13  1  0
 14 13  1  6
 14 15  1  0
 15 16  1  0
 16 17  1  0
 17 18  1  1
 18 19  1  0
 19 20  1  0
 20 21  1  0
 21 22  2  0
 22 23  1  0
 23 24  2  0
 24 25  1  0
 25 26  2  0
 17 27  1  0
 27 28  1  0
 28 29  2  0
 28 30  2  0
 28 31  1  0
 31 32  1  0
 32 33  2  0
 33 34  1  0
 34 35  1  0
 34 36  2  0
 36 37  1  0
 14  9  1  0
 26 21  1  0
 37 31  2  0
 27 14  1  0
M  END
$$$$
7
     RDKit          2D

 37 40  0  0  0  0  0  0  0  0999 V2000
   -8.2500    6.4952    0.0000 C   0  0  0  0  0  0  0  0  0  0  0  0
   -7.5000    5.1962    0.0000 C   0  0  0  0  0  0  0  0  0  0  0  0
   -6.0000    5.1962    0.0000 C   0  0  0  0  0  0  0  0  0  0  0  0
   -5.2500    3.8971    0.0000 C   0  0  0  0  0  0  0  0  0  0  0  0
   -3.7500    3.8971    0.0000 C   0  0  0  0  0  0  0  0  0  0  0  0
   -3.0000    5.1962    0.0000 O   0  0  0  0  0  0  0  0  0  0  0  0
   -3.0000    2.5981    0.0000 C   0  0  0  0  0  0  0  0  0  0  0  0
   -1.5000    2.5981    0.0000 C   0  0  0  0  0  0  0  0  0  0  0  0
   -0.7500    1.2990    0.0000 C   0  0  0  0  0  0  0  0  0  0  0  0
   -1.5000    0.0000    0.0000 C   0  0  0  0  0  0  0  0  0  0  0  0
   -0.7500   -1.2990    0.0000 C   0  0  0  0  0  0  0  0  0  0  0  0
    0.7500   -1.2990    0.0000 C   0  0  0  0  0  0  0  0  0  0  0  0
    1.5000   -0.0000    0.0000 C   0  0  0  0  0  0  0  0  0  0  0  0
    0.7500    1.2990    0.0000 C   0  0  0  0  0  0  0  0  0  0  0  0
    0.1399    2.6694    0.0000 C   0  0  0  0  0  0  0  0  0  0  0  0
    1.2546    3.6731    0.0000 C   0  0  0  0  0  0  0  0  0  0  0  0
    2.5537    2.9231    0.0000 C   0  0  0  0  0  0  0  0  0  0  0  0
    3.9240    3.5332    0.0000 C   0  0  0  0  0  0  0  0  0  0  0  0
    5.1375    2.6515    0.0000 O   0  0  0  0  0  0  0  0  0  0  0  0
    6.5078    3.2616    0.0000 C   0  0  0  0  0  0  0  0  0  0  0  0
    7.7213    2.3799    0.0000 C   0  0  0  0  0  0  0  0  0  0  0  0
    7.5645    0.8881    0.0000 C   0  0  0  0  0  0  0  0  0  0  0  0
    8.7781    0.0064    0.0000 C   0  0  0  0  0  0  0  0  0  0  0  0
   10.1484    0.6166    0.0000 C   0  0  0  0  0  0  0  0  0  0  0  0
   10.3052    2.1083    0.0000 C   0  0  0  0  0  0  0  0  0  0  0  0
    9.0917    2.9900    0.0000 C   0  0  0  0  0  0  0  0  0  0  0  0
    2.2418    1.4558    0.0000 N   0  0  0  0  0  0  0  0  0  0  0  0
    3.2455    0.3411    0.0000 S   0  0  0  0  0  0  0  0  0  0  0  0
    2.1308   -0.6626    0.0000 O   0  0  0  0  0  0  0  0  0  0  0  0
    4.3602    1.3448    0.0000 O   0  0  0  0  0  0  0  0  0  0  0  0
    4.2492   -0.7736    0.0000 C   0  0  0  0  0  0  0  0  0  0  0  0
    3.7856   -2.2002    0.0000 C   0  0  0  0  0  0  0  0  0  0  0  0
    4.7893   -3.3149    0.0000 C   0  0  0  0  0  0  0  0  0  0  0  0
    6.2566   -3.0030    0.0000 C   0  0  0  0  0  0  0  0  0  0  0  0
    7.2603   -4.1178    0.0000 C   0  0  0  0  0  0  0  0  0  0  0  0
    6.7201   -1.5765    0.0000 C   0  0  0  0  0  0  0  0  0  0  0  0
    5.7164   -0.4617    0.0000 C   0  0  0  0  0  0  0  0  0  0  0  0
  1  2  1  0
  2  3  1  0
  3  4  1  0
  4  5  1  0
  5  6  1  1
  5  7  1  0
  7  8  1  0
  9  8  1  1
  9 10  1  0
 10 11  1  0
 11 12  1  0
 12 13  1  0
 14 13  1  6
 14 15  1  0
 15 16  1  0
 16 17  1  0
 17 18  1  1
 18 19  1  0
 19 20  1  0
 20 21  1  0
 21 22  2  0
 22 23  1  0
 23 24  2  0
 24 25  1  0
 25 26  2  0
 17 27  1  0
 27 28  1  0
 28 29  2  0
 28 30  2  0
 28 31  1  0
 31 32  1  0
 32 33  2  0
 33 34  1  0
 34 35  1  0
 34 36  2  0
 36 37  1  0
 14  9  1  0
 26 21  1  0
 37 31  2  0
 27 14  1  0
M  END
$$$$
8
     RDKit          2D

 27 29  0  0  0  0  0  0  0  0999 V2000
    9.7500   -3.8971    0.0000 C   0  0  0  0  0  0  0  0  0  0  0  0
    8.2500   -3.8971    0.0000 C   0  0  0  0  0  0  0  0  0  0  0  0
    7.5000   -2.5981    0.0000 C   0  0  0  0  0  0  0  0  0  0  0  0
    6.0000   -2.5981    0.0000 C   0  0  0  0  0  0  0  0  0  0  0  0
    5.2500   -1.2990    0.0000 C   0  0  0  0  0  0  0  0  0  0  0  0
    6.0000    0.0000    0.0000 O   0  0  0  0  0  0  0  0  0  0  0  0
    3.7500   -1.2990    0.0000 C   0  0  0  0  0  0  0  0  0  0  0  0
    3.0000    0.0000    0.0000 C   0  0  0  0  0  0  0  0  0  0  0  0
    1.5000    0.0000    0.0000 C   0  0  0  0  0  0  0  0  0  0  0  0
    0.7500   -1.2990    0.0000 C   0  0  0  0  0  0  0  0  0  0  0  0
   -0.7500   -1.2990    0.0000 C   0  0  0  0  0  0  0  0  0  0  0  0
   -1.5000    0.0000    0.0000 C   0  0  0  0  0  0  0  0  0  0  0  0
   -0.7500    1.2990    0.0000 C   0  0  0  0  0  0  0  0  0  0  0  0
    0.7500    1.2990    0.0000 C   0  0  0  0  0  0  0  0  0  0  0  0
    0.1399    2.6694    0.0000 C   0  0  0  0  0  0  0  0  0  0  0  0
    1.2546    3.6731    0.0000 C   0  0  0  0  0  0  0  0  0  0  0  0
    2.5537    2.9231    0.0000 C   0  0  0  0  0  0  0  0  0  0  0  0
    3.9240    3.5332    0.0000 C   0  0  0  0  0  0  0  0  0  0  0  0
    5.1375    2.6515    0.0000 O   0  0  0  0  0  0  0  0  0  0  0  0
    6.5078    3.2616    0.0000 C   0  0  0  0  0  0  0  0  0  0  0  0
    7.7213    2.3799    0.0000 C   0  0  0  0  0  0  0  0  0  0  0  0
    7.5645    0.8881    0.0000 C   0  0  0  0  0  0  0  0  0  0  0  0
    8.7781    0.0064    0.0000 C   0  0  0  0  0  0  0  0  0  0  0  0
   10.1484    0.6166    0.0000 C   0  0  0  0  0  0  0  0  0  0  0  0
   10.3052    2.1083    0.0000 C   0  0  0  0  0  0  0  0  0  0  0  0
    9.0917    2.9900    0.0000 C   0  0  0  0  0  0  0  0  0  0  0  0
    2.2418    1.4558    0.0000 N   0  0  0  0  0  0  0  0  0  0  0  0
  1  2  1  0
  2  3  1  0
  3  4  1  0
  4  5  1  0
  5  6  1  6
  5  7  1  0
  7  8  1  0
  9  8  1  6
  9 10  1  0
 10 11  1  0
 11 12  1  0
 12 13  1  0
 14 13  1  6
 14 15  1  0
 15 16  1  0
 16 17  1  0
 17 18  1  1
 18 19  1  0
 19 20  1  0
 20 21  1  0
 21 22  2  0
 22 23  1  0
 23 24  2  0
 24 25  1  0
 25 26  2  0
 17 27  1  0
 14  9  1  0
 26 21  1  0
 27 14  1  0
M  END
$$$$
9
     RDKit          2D

 26 29  0  0  0  0  0  0  0  0999 V2000
   -0.7500   -9.0933    0.0000 C   0  0  0  0  0  0  0  0  0  0  0  0
   -1.5000   -7.7942    0.0000 C   0  0  0  0  0  0  0  0  0  0  0  0
   -0.7500   -6.4952    0.0000 C   0  0  0  0  0  0  0  0  0  0  0  0
   -1.5000   -5.1962    0.0000 C   0  0  0  0  0  0  0  0  0  0  0  0
   -0.7500   -3.8971    0.0000 C   0  0  0  0  0  0  0  0  0  0  0  0
    0.7500   -3.8971    0.0000 C   0  0  0  0  0  0  0  0  0  0  0  0
    1.5000   -2.5981    0.0000 C   0  0  0  0  0  0  0  0  0  0  0  0
    0.7500   -1.2990    0.0000 C   0  0  0  0  0  0  0  0  0  0  0  0
    1.5000    0.0000    0.0000 C   0  0  0  0  0  0  0  0  0  0  0  0
    0.7500    1.2990    0.0000 C   0  0  0  0  0  0  0  0  0  0  0  0
   -0.7500    1.2990    0.0000 C   0  0  0  0  0  0  0  0  0  0  0  0
   -1.5000    0.0000    0.0000 C   0  0  0  0  0  0  0  0  0  0  0  0
   -0.7500   -1.2990    0.0000 C   0  0  0  0  0  0  0  0  0  0  0  0
   -0.5855   -1.8270    0.0000 C   0  0  0  0  0  0  0  0  0  0  0  0
   -1.3054   -1.8444    0.0000 C   0  0  0  0  0  0  0  0  0  0  0  0
   -0.9605   -2.4766    0.0000 C   0  0  0  0  0  0  0  0  0  0  0  0
   -4.0819   -3.2899    0.0000 C   0  0  0  0  0  0  0  0  0  0  0  0
   -5.5085   -2.8264    0.0000 O   0  0  0  0  0  0  0  0  0  0  0  0
   -6.6232   -3.8301    0.0000 C   0  0  0  0  0  0  0  0  0  0  0  0
   -8.0498   -3.3665    0.0000 C   0  0  0  0  0  0  0  0  0  0  0  0
   -8.3617   -1.8993    0.0000 C   0  0  0  0  0  0  0  0  0  0  0  0
   -9.7883   -1.4358    0.0000 C   0  0  0  0  0  0  0  0  0  0  0  0
  -10.9030   -2.4395    0.0000 C   0  0  0  0  0  0  0  0  0  0  0  0
  -10.5911   -3.9067    0.0000 C   0  0  0  0  0  0  0  0  0  0  0  0
   -9.1645   -4.3702    0.0000 C   0  0  0  0  0  0  0  0  0  0  0  0
   -1.5000   -2.5981    0.0000 N   0  0  0  0  0  0  0  0  0  0  0  0
  1  2  1  0
  2  3  1  0
  3  4  1  0
  5  4  1  6
  5  6  1  0
  6  7  1  0
  8  7  1  1
  8  9  1  0
  9 10  1  0
 10 11  1  0
 11 12  1  0
 13 12  1  1
 13 14  1  0
 14 15  1  0
 15 16  1  0
 16 17  1  1
 17 18  1  0
 18 19  1  0
 19 20  1  0
 20 21  2  0
 21 22  1  0
 22 23  2  0
 23 24  1  0
 24 25  2  0
 16 26  1  0
 26  5  1  0
 13  8  1  0
 25 20  1  0
 26 13  1  0
M  END
$$$$
1
     RDKit          2D

 19 21  0  0  0  0  0  0  0  0999 V2000
   -0.7500   -9.0933    0.0000 C   0  0  0  0  0  0  0  0  0  0  0  0
   -1.5000   -7.7942    0.0000 C   0  0  0  0  0  0  0  0  0  0  0  0
   -0.7500   -6.4952    0.0000 C   0  0  0  0  0  0  0  0  0  0  0  0
   -1.5000   -5.1962    0.0000 C   0  0  0  0  0  0  0  0  0  0  0  0
   -0.7500   -3.8971    0.0000 C   0  0  0  0  0  0  0  0  0  0  0  0
    0.7500   -3.8971    0.0000 C   0  0  0  0  0  0  0  0  0  0  0  0
    1.5000   -2.5981    0.0000 C   0  0  0  0  0  0  0  0  0  0  0  0
    0.7500   -1.2990    0.0000 C   0  0  0  0  0  0  0  0  0  0  0  0
    1.5000    0.0000    0.0000 C   0  0  0  0  0  0  0  0  0  0  0  0
    0.7500    1.2990    0.0000 C   0  0  0  0  0  0  0  0  0  0  0  0
   -0.7500    1.2990    0.0000 C   0  0  0  0  0  0  0  0  0  0  0  0
   -1.5000    0.0000    0.0000 C   0  0  0  0  0  0  0  0  0  0  0  0
   -0.7500   -1.2990    0.0000 C   0  0  0  0  0  0  0  0  0  0  0  0
   -0.5855   -1.8270    0.0000 C   0  0  0  0  0  0  0  0  0  0  0  0
   -1.3054   -1.8444    0.0000 C   0  0  0  0  0  0  0  0  0  0  0  0
   -0.9605   -2.4766    0.0000 C   0  0  0  0  0  0  0  0  0  0  0  0
   -4.0819   -3.2899    0.0000 C   0  0  0  0  0  0  0  0  0  0  0  0
   -5.5085   -2.8264    0.0000 O   0  0  0  0  0  0  0  0  0  0  0  0
   -1.5000   -2.5981    0.0000 N   0  0  0  0  0  0  0  0  0  0  0  0
  1  2  1  0
  2  3  1  0
  3  4  1  0
  5  4  1  6
  5  6  1  0
  6  7  1  0
  8  7  1  1
  8  9  1  0
  9 10  1  0
 10 11  1  0
 11 12  1  0
 13 12  1  1
 13 14  1  0
 14 15  1  0
 15 16  1  0
 16 17  1  1
 17 18  1  0
 16 19  1  0
 19  5  1  0
 13  8  1  0
 19 13  1  0
M  END
$$$$
1-HCl
     RDKit          2D

 20 21  0  0  0  0  0  0  0  0999 V2000
   -0.7500   -9.0933    0.0000 C   0  0  0  0  0  0  0  0  0  0  0  0
   -1.5000   -7.7942    0.0000 C   0  0  0  0  0  0  0  0  0  0  0  0
   -0.7500   -6.4952    0.0000 C   0  0  0  0  0  0  0  0  0  0  0  0
   -1.5000   -5.1962    0.0000 C   0  0  0  0  0  0  0  0  0  0  0  0
   -0.7500   -3.8971    0.0000 C   0  0  0  0  0  0  0  0  0  0  0  0
    0.7500   -3.8971    0.0000 C   0  0  0  0  0  0  0  0  0  0  0  0
    1.5000   -2.5981    0.0000 C   0  0  0  0  0  0  0  0  0  0  0  0
    0.7500   -1.2990    0.0000 C   0  0  0  0  0  0  0  0  0  0  0  0
    1.5000    0.0000    0.0000 C   0  0  0  0  0  0  0  0  0  0  0  0
    0.7500    1.2990    0.0000 C   0  0  0  0  0  0  0  0  0  0  0  0
   -0.7500    1.2990    0.0000 C   0  0  0  0  0  0  0  0  0  0  0  0
   -1.5000    0.0000    0.0000 C   0  0  0  0  0  0  0  0  0  0  0  0
   -0.7500   -1.2990    0.0000 C   0  0  0  0  0  0  0  0  0  0  0  0
   -0.5855   -1.8270    0.0000 C   0  0  0  0  0  0  0  0  0  0  0  0
   -1.3054   -1.8444    0.0000 C   0  0  0  0  0  0  0  0  0  0  0  0
   -0.9605   -2.4766    0.0000 C   0  0  0  0  0  0  0  0  0  0  0  0
   -4.0819   -3.2899    0.0000 C   0  0  0  0  0  0  0  0  0  0  0  0
   -5.5085   -2.8264    0.0000 O   0  0  0  0  0  0  0  0  0  0  0  0
   -1.5000   -2.5981    0.0000 N   0  0  0  0  0  0  0  0  0  0  0  0
    2.5000    0.0000    0.0000 Cl  0  0  0  0  0  0  0  0  0  0  0  0
  1  2  1  0
  2  3  1  0
  3  4  1  0
  5  4  1  6
  5  6  1  0
  6  7  1  0
  8  7  1  1
  8  9  1  0
  9 10  1  0
 10 11  1  0
 11 12  1  0
 13 12  1  1
 13 14  1  0
 14 15  1  0
 15 16  1  0
 16 17  1  1
 17 18  1  0
 16 19  1  0
 19  5  1  0
 13  8  1  0
 19 13  1  0
M  CHG  2  19   1  20  -1
M  END
$$$$
2
     RDKit          2D

 19 21  0  0  0  0  0  0  0  0999 V2000
   -0.7500   -9.0933    0.0000 C   0  0  0  0  0  0  0  0  0  0  0  0
   -1.5000   -7.7942    0.0000 C   0  0  0  0  0  0  0  0  0  0  0  0
   -0.7500   -6.4952    0.0000 C   0  0  0  0  0  0  0  0  0  0  0  0
   -1.5000   -5.1962    0.0000 C   0  0  0  0  0  0  0  0  0  0  0  0
   -0.7500   -3.8971    0.0000 C   0  0  0  0  0  0  0  0  0  0  0  0
    0.7500   -3.8971    0.0000 C   0  0  0  0  0  0  0  0  0  0  0  0
    1.5000   -2.5981    0.0000 C   0  0  0  0  0  0  0  0  0  0  0  0
    0.7500   -1.2990    0.0000 C   0  0  0  0  0  0  0  0  0  0  0  0
    1.5000    0.0000    0.0000 C   0  0  0  0  0  0  0  0  0  0  0  0
    0.7500    1.2990    0.0000 C   0  0  0  0  0  0  0  0  0  0  0  0
   -0.7500    1.2990    0.0000 C   0  0  0  0  0  0  0  0  0  0  0  0
   -1.5000    0.0000    0.0000 C   0  0  0  0  0  0  0  0  0  0  0  0
   -0.7500   -1.2990    0.0000 C   0  0  0  0  0  0  0  0  0  0  0  0
   -1.8500   -0.6062    0.0000 C   0  0  0  0  0  0  0  0  0  0  0  0
   -2.6500   -0.6062    0.0000 C   0  0  0  0  0  0  0  0  0  0  0  0
   -3.0500   -1.2990    0.0000 C   0  0  0  0  0  0  0  0  0  0  0  0
   -5.2500   -1.2990    0.0000 O   0  0  0  0  0  0  0  0  0  0  0  0
   -2.6500   -1.9919    0.0000 C   0  0  0  0  0  0  0  0  0  0  0  0
   -1.5000   -2.5981    0.0000 N   0  0  0  0  0  0  0  0  0  0  0  0
  1  2  1  0
  2  3  1  0
  3  4  1  0
  5  4  1  6
  5  6  1  0
  6  7  1  0
  8  7  1  1
  8  9  1  0
  9 10  1  0
 10 11  1  0
 11 12  1  0
 13 12  1  6
 13 14  1  0
 14 15  1  0
 15 16  1  0
 16 17  1  6
 16 18  1  0
 18 19  1  0
 19  5  1  0
 13  8  1  0
 19 13  1  0
M  END
$$$$
2-HCl
     RDKit          2D

 20 21  0  0  0  0  0  0  0  0999 V2000
   -0.7500   -9.0933    0.0000 C   0  0  0  0  0  0  0  0  0  0  0  0
   -1.5000   -7.7942    0.0000 C   0  0  0  0  0  0  0  0  0  0  0  0
   -0.7500   -6.4952    0.0000 C   0  0  0  0  0  0  0  0  0  0  0  0
   -1.5000   -5.1962    0.0000 C   0  0  0  0  0  0  0  0  0  0  0  0
   -0.7500   -3.8971    0.0000 C   0  0  0  0  0  0  0  0  0  0  0  0
    0.7500   -3.8971    0.0000 C   0  0  0  0  0  0  0  0  0  0  0  0
    1.5000   -2.5981    0.0000 C   0  0  0  0  0  0  0  0  0  0  0  0
    0.7500   -1.2990    0.0000 C   0  0  0  0  0  0  0  0  0  0  0  0
    1.5000    0.0000    0.0000 C   0  0  0  0  0  0  0  0  0  0  0  0
    0.7500    1.2990    0.0000 C   0  0  0  0  0  0  0  0  0  0  0  0
   -0.7500    1.2990    0.0000 C   0  0  0  0  0  0  0  0  0  0  0  0
   -1.5000    0.0000    0.0000 C   0  0  0  0  0  0  0  0  0  0  0  0
   -0.7500   -1.2990    0.0000 C   0  0  0  0  0  0  0  0  0  0  0  0
   -1.8500   -0.6062    0.0000 C   0  0  0  0  0  0  0  0  0  0  0  0
   -2.6500   -0.6062    0.0000 C   0  0  0  0  0  0  0  0  0  0  0  0
   -3.0500   -1.2990    0.0000 C   0  0  0  0  0  0  0  0  0  0  0  0
   -5.2500   -1.2990    0.0000 O   0  0  0  0  0  0  0  0  0  0  0  0
   -2.6500   -1.9919    0.0000 C   0  0  0  0  0  0  0  0  0  0  0  0
   -1.5000   -2.5981    0.0000 N   0  0  0  0  0  0  0  0  0  0  0  0
    2.5000    0.0000    0.0000 Cl  0  0  0  0  0  0  0  0  0  0  0  0
  1  2  1  0
  2  3  1  0
  3  4  1  0
  5  4  1  6
  5  6  1  0
  6  7  1  0
  8  7  1  1
  8  9  1  0
  9 10  1  0
 10 11  1  0
 11 12  1  0
 13 12  1  6
 13 14  1  0
 14 15  1  0
 15 16  1  0
 16 17  1  6
 16 18  1  0
 18 19  1  0
 19  5  1  0
 13  8  1  0
 19 13  1  0
M  CHG  2  19   1  20  -1
M  END
$$$$
