7
     RDKit          2D

 11 12  0  0  0  0  0  0  0  0999 V2000
   -0.0000   -5.1073    0.0000 O   0  0  0  0  0  0  0  0  0  0  0  0
   -0.0000   -3.6073    0.0000 C   0  0  0  0  0  0  0  0  0  0  0  0
    1.2135   -2.7256    0.0000 N   0  0  0  0  0  0  0  0  0  0  0  0
    0.7500   -1.2990    0.0000 C   0  0  0  0  0  0  0  0  0  0  0  0
    1.5000    0.0000    0.0000 C   0  0  0  0  0  0  0  0  0  0  0  0
    0.7500    1.2990    0.0000 C   0  0  0  0  0  0  0  0  0  0  0  0
   -0.7500    1.2990    0.0000 C   0  0  0  0  0  0  0  0  0  0  0  0
   -1.5000    0.0000    0.0000 C   0  0  0  0  0  0  0  0  0  0  0  0
   -0.7500   -1.2990    0.0000 C   0  0  0  0  0  0  0  0  0  0  0  0
   -1.2135   -2.7256    0.0000 C   0  0  0  0  0  0  0  0  0  0  0  0
   -2.6401   -3.1891    0.0000 O   0  0  0  0  0  0  0  0  0  0  0  0
  1  2  2  0
  2  3  1  0
  3  4  1  0
  4  5  2  0
  5  6  1  0
  6  7  2  0
  7  8  1  0
  8  9  2  0
  9 10  1  0
 10 11  2  0
 10  2  1  0
  9  4  1  0
M  END
$$$$
8
     RDKit          2D

 22 22  0  0  0  0  0  0  0  0999 V2000
    6.0000   -2.5981    0.0000 C   0  0  0  0  0  0  0  0  0  0  0  0
    5.2500   -1.2990    0.0000 C   0  0  0  0  0  0  0  0  0  0  0  0
    6.0000    0.0000    0.0000 O   0  0  0  0  0  0  0  0  0  0  0  0
    3.7500   -1.2990    0.0000 C   0  0  0  0  0  0  0  0  0  0  0  0
    3.0000    0.0000    0.0000 C   0  0  0  0  0  0  0  0  0  0  0  0
    1.5000   -0.0000    0.0000 C   0  0  0  0  0  0  0  0  0  0  0  0
    0.7500   -1.2990    0.0000 C   0  0  0  0  0  0  0  0  0  0  0  0
   -0.7500   -1.2990    0.0000 C   0  0  0  0  0  0  0  0  0  0  0  0
   -1.5000    0.0000    0.0000 C   0  0  0  0  0  0  0  0  0  0  0  0
   -3.0000    0.0000    0.0000 O   0  0  0  0  0  0  0  0  0  0  0  0
   -3.7500    1.2990    0.0000 Si  0  0  0  0  0  4  0  0  0  0  0  0
   -2.4510    2.0490    0.0000 C   0  0  0  0  0  0  0  0  0  0  0  0
   -2.4510    3.5490    0.0000 C   0  0  0  0  0  0  0  0  0  0  0  0
   -1.3998    1.7477    0.0000 C   0  0  0  0  0  0  0  0  0  0  0  0
   -5.0490    0.5490    0.0000 C   0  0  0  0  0  0  0  0  0  0  0  0
   -6.3481    1.2990    0.0000 C   0  0  0  0  0  0  0  0  0  0  0  0
   -5.0490   -0.9510    0.0000 C   0  0  0  0  0  0  0  0  0  0  0  0
   -4.5000    2.5981    0.0000 C   0  0  0  0  0  0  0  0  0  0  0  0
   -6.0000    2.5981    0.0000 C   0  0  0  0  0  0  0  0  0  0  0  0
   -3.7500    3.8971    0.0000 C   0  0  0  0  0  0  0  0  0  0  0  0
   -0.7500    1.2990    0.0000 C   0  0  0  0  0  0  0  0  0  0  0  0
    0.7500    1.2990    0.0000 C   0  0  0  0  0  0  0  0  0  0  0  0
  1  2  1  0
  2  3  2  0
  2  4  1  0
  4  5  1  0
  5  6  1  0
  6  7  1  0
  7  8  2  0
  8  9  1  0
  9 10  1  0
 10 11  1  0
 11 12  1  0
 12 13  1  0
 12 14  1  0
 11 15  1  0
 15 16  1  0
 15 17  1  0
 11 18  1  0
 18 19  1  0
 18 20  1  0
  9 21  2  0
 21 22  1  0
 22  6  2  0
M  END
$$$$
9
     RDKit          2D

 33 35  0  0  0  0  0  0  0  0999 V2000
  -15.4495   -0.6533    0.0000 C   0  0  0  0  0  0  0  0  0  0  0  0
  -13.9577   -0.4965    0.0000 C   0  0  0  0  0  0  0  0  0  0  0  0
  -13.3476    0.8738    0.0000 C   0  0  0  0  0  0  0  0  0  0  0  0
  -13.0760   -1.7100    0.0000 Si  0  0  0  0  0  4  0  0  0  0  0  0
  -11.8625   -0.8283    0.0000 O   0  0  0  0  0  0  0  0  0  0  0  0
  -10.4922   -1.4385    0.0000 C   0  0  0  0  0  0  0  0  0  0  0  0
   -9.2786   -0.5568    0.0000 C   0  0  0  0  0  0  0  0  0  0  0  0
   -7.9083   -1.1669    0.0000 C   0  0  0  0  0  0  0  0  0  0  0  0
   -7.7515   -2.6587    0.0000 C   0  0  0  0  0  0  0  0  0  0  0  0
   -6.3812   -3.2688    0.0000 C   0  0  0  0  0  0  0  0  0  0  0  0
   -5.1677   -2.3871    0.0000 C   0  0  0  0  0  0  0  0  0  0  0  0
   -3.7974   -2.9972    0.0000 C   0  0  0  0  0  0  0  0  0  0  0  0
   -3.6406   -4.4890    0.0000 O   0  0  0  0  0  0  0  0  0  0  0  0
   -2.5838   -2.1155    0.0000 C   0  0  0  0  0  0  0  0  0  0  0  0
   -1.2135   -2.7256    0.0000 C   0  0  0  0  0  0  0  0  0  0  0  0
   -1.9635   -4.0247    0.0000 O   0  0  0  0  0  0  0  0  0  0  0  0
   -0.0000   -3.6073    0.0000 C   0  0  0  0  0  0  0  0  0  0  0  0
    0.0000   -5.1073    0.0000 O   0  0  0  0  0  0  0  0  0  0  0  0
    1.2135   -2.7256    0.0000 N   0  0  0  0  0  0  0  0  0  0  0  0
    0.7500   -1.2990    0.0000 C   0  0  0  0  0  0  0  0  0  0  0  0
    1.5000    0.0000    0.0000 C   0  0  0  0  0  0  0  0  0  0  0  0
    0.7500    1.2990    0.0000 C   0  0  0  0  0  0  0  0  0  0  0  0
   -0.7500    1.2990    0.0000 C   0  0  0  0  0  0  0  0  0  0  0  0
   -1.5000    0.0000    0.0000 C   0  0  0  0  0  0  0  0  0  0  0  0
   -0.7500   -1.2990    0.0000 C   0  0  0  0  0  0  0  0  0  0  0  0
   -8.9651   -3.5403    0.0000 C   0  0  0  0  0  0  0  0  0  0  0  0
  -10.3354   -2.9302    0.0000 C   0  0  0  0  0  0  0  0  0  0  0  0
  -12.1943   -2.9236    0.0000 C   0  0  0  0  0  0  0  0  0  0  0  0
  -12.8044   -4.2939    0.0000 C   0  0  0  0  0  0  0  0  0  0  0  0
  -11.1115   -3.0758    0.0000 C   0  0  0  0  0  0  0  0  0  0  0  0
  -14.2895   -2.5917    0.0000 C   0  0  0  0  0  0  0  0  0  0  0  0
  -14.1327   -4.0835    0.0000 C   0  0  0  0  0  0  0  0  0  0  0  0
  -15.6599   -1.9816    0.0000 C   0  0  0  0  0  0  0  0  0  0  0  0
  1  2  1  0
  2  3  1  0
  2  4  1  0
  4  5  1  0
  5  6  1  0
  6  7  1  0
  7  8  2  0
  8  9  1  0
  9 10  1  0
 10 11  1  0
 11 12  1  0
 12 13  2  0
 12 14  1  0
 14 15  1  0
 15 16  1  0
 15 17  1  0
 17 18  2  0
 17 19  1  0
 19 20  1  0
 20 21  2  0
 21 22  1  0
 22 23  2  0
 23 24  1  0
 24 25  2  0
  9 26  2  0
 26 27  1  0
  4 28  1  0
 28 29  1  0
 28 30  1  0
  4 31  1  0
 31 32  1  0
 31 33  1  0
 27  6  2  0
 25 15  1  0
 25 20  1  0
M  END
$$$$
S1
     RDKit          2D

 37 39  0  0  0  0  0  0  0  0999 V2000
  -14.3927    1.7202    0.0000 C   0  0  0  0  0  0  0  0  0  0  0  0
  -13.5111    0.5066    0.0000 C   0  0  0  0  0  0  0  0  0  0  0  0
  -14.1212   -0.8637    0.0000 C   0  0  0  0  0  0  0  0  0  0  0  0
  -12.0193    0.6634    0.0000 Si  0  0  0  0  0  4  0  0  0  0  0  0
  -11.8625   -0.8283    0.0000 O   0  0  0  0  0  0  0  0  0  0  0  0
  -10.4922   -1.4385    0.0000 C   0  0  0  0  0  0  0  0  0  0  0  0
   -9.2786   -0.5568    0.0000 C   0  0  0  0  0  0  0  0  0  0  0  0
   -7.9083   -1.1669    0.0000 C   0  0  0  0  0  0  0  0  0  0  0  0
   -7.7515   -2.6587    0.0000 C   0  0  0  0  0  0  0  0  0  0  0  0
   -6.3812   -3.2688    0.0000 C   0  0  0  0  0  0  0  0  0  0  0  0
   -5.1677   -2.3871    0.0000 C   0  0  0  0  0  0  0  0  0  0  0  0
   -3.7974   -2.9972    0.0000 C   0  0  0  0  0  0  0  0  0  0  0  0
   -3.6406   -4.4890    0.0000 O   0  0  0  0  0  0  0  0  0  0  0  0
   -2.5838   -2.1155    0.0000 C   0  0  0  0  0  0  0  0  0  0  0  0
   -1.2135   -2.7256    0.0000 C   0  0  0  0  0  0  0  0  0  0  0  0
   -1.9635   -4.0247    0.0000 O   0  0  0  0  0  0  0  0  0  0  0  0
   -1.2135   -5.3237    0.0000 Si  0  0  0  0  0  4  0  0  0  0  0  0
   -2.5126   -6.0737    0.0000 C   0  0  0  0  0  0  0  0  0  0  0  0
   -0.4797   -5.0122    0.0000 C   0  0  0  0  0  0  0  0  0  0  0  0
   -0.4635   -6.6227    0.0000 C   0  0  0  0  0  0  0  0  0  0  0  0
   -0.0000   -3.6073    0.0000 C   0  0  0  0  0  0  0  0  0  0  0  0
    0.0972   -4.3985    0.0000 O   0  0  0  0  0  0  0  0  0  0  0  0
    1.2135   -2.7256    0.0000 N   0  0  0  0  0  0  0  0  0  0  0  0
    0.7500   -1.2990    0.0000 C   0  0  0  0  0  0  0  0  0  0  0  0
    1.5000    0.0000    0.0000 C   0  0  0  0  0  0  0  0  0  0  0  0
    0.7500    1.2990    0.0000 C   0  0  0  0  0  0  0  0  0  0  0  0
   -0.7500    1.2990    0.0000 C   0  0  0  0  0  0  0  0  0  0  0  0
   -1.5000    0.0000    0.0000 C   0  0  0  0  0  0  0  0  0  0  0  0
   -0.7500   -1.2990    0.0000 C   0  0  0  0  0  0  0  0  0  0  0  0
   -8.9651   -3.5403    0.0000 C   0  0  0  0  0  0  0  0  0  0  0  0
  -10.3354   -2.9302    0.0000 C   0  0  0  0  0  0  0  0  0  0  0  0
  -10.5275    0.8202    0.0000 C   0  0  0  0  0  0  0  0  0  0  0  0
   -9.9174    2.1905    0.0000 C   0  0  0  0  0  0  0  0  0  0  0  0
   -9.3784   -0.1439    0.0000 C   0  0  0  0  0  0  0  0  0  0  0  0
  -12.1761    2.1552    0.0000 C   0  0  0  0  0  0  0  0  0  0  0  0
  -10.9625    3.0369    0.0000 C   0  0  0  0  0  0  0  0  0  0  0  0
  -13.5464    2.7653    0.0000 C   0  0  0  0  0  0  0  0  0  0  0  0
  1  2  1  0
  2  3  1  0
  2  4  1  0
  4  5  1  0
  5  6  1  0
  6  7  1  0
  7  8  2  0
  8  9  1  0
  9 10  1  0
 10 11  1  0
 11 12  1  0
 12 13  2  0
 12 14  1  0
 14 15  1  0
 15 16  1  0
 16 17  1  0
 17 18  1  0
 17 19  1  0
 17 20  1  0
 15 21  1  0
 21 22  2  0
 21 23  1  0
 23 24  1  0
 24 25  2  0
 25 26  1  0
 26 27  2  0
 27 28  1  0
 28 29  2  0
  9 30  2  0
 30 31  1  0
  4 32  1  0
 32 33  1  0
 32 34  1  0
  4 35  1  0
 35 36  1  0
 35 37  1  0
 31  6  2  0
 29 15  1  0
 29 24  1  0
M  END
$$$$
10
     RDKit          2D

 44 46  0  0  0  0  0  0  0  0999 V2000
  -14.3927    1.7202    0.0000 C   0  0  0  0  0  0  0  0  0  0  0  0
  -13.5111    0.5066    0.0000 C   0  0  0  0  0  0  0  0  0  0  0  0
  -14.1212   -0.8637    0.0000 C   0  0  0  0  0  0  0  0  0  0  0  0
  -12.0193    0.6634    0.0000 Si  0  0  0  0  0  4  0  0  0  0  0  0
  -11.8625   -0.8283    0.0000 O   0  0  0  0  0  0  0  0  0  0  0  0
  -10.4922   -1.4385    0.0000 C   0  0  0  0  0  0  0  0  0  0  0  0
   -9.2786   -0.5568    0.0000 C   0  0  0  0  0  0  0  0  0  0  0  0
   -7.9083   -1.1669    0.0000 C   0  0  0  0  0  0  0  0  0  0  0  0
   -7.7515   -2.6587    0.0000 C   0  0  0  0  0  0  0  0  0  0  0  0
   -6.3812   -3.2688    0.0000 C   0  0  0  0  0  0  0  0  0  0  0  0
   -5.1677   -2.3871    0.0000 C   0  0  0  0  0  0  0  0  0  0  0  0
   -3.7974   -2.9972    0.0000 C   0  0  0  0  0  0  0  0  0  0  0  0
   -3.6406   -4.4890    0.0000 O   0  0  0  0  0  0  0  0  0  0  0  0
   -2.5838   -2.1155    0.0000 C   0  0  0  0  0  0  0  0  0  0  0  0
   -1.2135   -2.7256    0.0000 C   0  0  0  0  0  0  0  0  0  0  0  0
   -1.9635   -4.0247    0.0000 O   0  0  0  0  0  0  0  0  0  0  0  0
   -1.2135   -5.3237    0.0000 Si  0  0  0  0  0  4  0  0  0  0  0  0
   -2.5126   -6.0737    0.0000 C   0  0  0  0  0  0  0  0  0  0  0  0
   -0.4797   -5.0122    0.0000 C   0  0  0  0  0  0  0  0  0  0  0  0
   -0.4635   -6.6227    0.0000 C   0  0  0  0  0  0  0  0  0  0  0  0
   -0.0000   -3.6073    0.0000 C   0  0  0  0  0  0  0  0  0  0  0  0
    0.0972   -4.3985    0.0000 O   0  0  0  0  0  0  0  0  0  0  0  0
    1.2135   -2.7256    0.0000 N   0  0  0  0  0  0  0  0  0  0  0  0
    2.6401   -3.1891    0.0000 C   0  0  0  0  0  0  0  0  0  0  0  0
    3.7548   -2.1855    0.0000 O   0  0  0  0  0  0  0  0  0  0  0  0
    2.9520   -4.6564    0.0000 O   0  0  0  0  0  0  0  0  0  0  0  0
    4.3786   -5.1199    0.0000 C   0  0  0  0  0  0  0  0  0  0  0  0
    3.9150   -6.5465    0.0000 C   0  0  0  0  0  0  0  0  0  0  0  0
    4.8421   -3.6933    0.0000 C   0  0  0  0  0  0  0  0  0  0  0  0
    5.8051   -5.5834    0.0000 C   0  0  0  0  0  0  0  0  0  0  0  0
    0.7500   -1.2990    0.0000 C   0  0  0  0  0  0  0  0  0  0  0  0
    1.5000    0.0000    0.0000 C   0  0  0  0  0  0  0  0  0  0  0  0
    0.7500    1.2990    0.0000 C   0  0  0  0  0  0  0  0  0  0  0  0
   -0.7500    1.2990    0.0000 C   0  0  0  0  0  0  0  0  0  0  0  0
   -1.5000    0.0000    0.0000 C   0  0  0  0  0  0  0  0  0  0  0  0
   -0.7500   -1.2990    0.0000 C   0  0  0  0  0  0  0  0  0  0  0  0
   -8.9651   -3.5403    0.0000 C   0  0  0  0  0  0  0  0  0  0  0  0
  -10.3354   -2.9302    0.0000 C   0  0  0  0  0  0  0  0  0  0  0  0
  -10.5275    0.8202    0.0000 C   0  0  0  0  0  0  0  0  0  0  0  0
   -9.9174    2.1905    0.0000 C   0  0  0  0  0  0  0  0  0  0  0  0
   -9.3784   -0.1439    0.0000 C   0  0  0  0  0  0  0  0  0  0  0  0
  -12.1761    2.1552    0.0000 C   0  0  0  0  0  0  0  0  0  0  0  0
  -10.9625    3.0369    0.0000 C   0  0  0  0  0  0  0  0  0  0  0  0
  -13.5464    2.7653    0.0000 C   0  0  0  0  0  0  0  0  0  0  0  0
  1  2  1  0
  2  3  1  0
  2  4  1  0
  4  5  1  0
  5  6  1  0
  6  7  1  0
  7  8  2  0
  8  9  1  0
  9 10  1  0
 10 11  1  0
 11 12  1  0
 12 13  2  0
 12 14  1  0
 14 15  1  0
 15 16  1  0
 16 17  1  0
 17 18  1  0
 17 19  1  0
 17 20  1  0
 15 21  1  0
 21 22  2  0
 21 23  1  0
 23 24  1  0
 24 25  2  0
 24 26  1  0
 26 27  1  0
 27 28  1  0
 27 29  1  0
 27 30  1  0
 23 31  1  0
 31 32  2  0
 32 33  1  0
 33 34  2  0
 34 35  1  0
 35 36  2  0
  9 37  2  0
 37 38  1  0
  4 39  1  0
 39 40  1  0
 39 41  1  0
  4 42  1  0
 42 43  1  0
 42 44  1  0
 38  6  2  0
 36 15  1  0
 36 31  1  0
M  END
$$$$
11
     RDKit          2D

 51 53  0  0  0  0  0  0  0  0999 V2000
  -14.3927    1.7202    0.0000 C   0  0  0  0  0  0  0  0  0  0  0  0
  -13.5111    0.5066    0.0000 C   0  0  0  0  0  0  0  0  0  0  0  0
  -14.1212   -0.8637    0.0000 C   0  0  0  0  0  0  0  0  0  0  0  0
  -12.0193    0.6634    0.0000 Si  0  0  0  0  0  4  0  0  0  0  0  0
  -11.8625   -0.8283    0.0000 O   0  0  0  0  0  0  0  0  0  0  0  0
  -10.4922   -1.4385    0.0000 C   0  0  0  0  0  0  0  0  0  0  0  0
   -9.2786   -0.5568    0.0000 C   0  0  0  0  0  0  0  0  0  0  0  0
   -7.9083   -1.1669    0.0000 C   0  0  0  0  0  0  0  0  0  0  0  0
   -7.7515   -2.6587    0.0000 C   0  0  0  0  0  0  0  0  0  0  0  0
   -6.3812   -3.2688    0.0000 C   0  0  0  0  0  0  0  0  0  0  0  0
   -5.1677   -2.3871    0.0000 C   0  0  0  0  0  0  0  0  0  0  0  0
   -3.7974   -2.9972    0.0000 C   0  0  0  0  0  0  0  0  0  0  0  0
   -2.5838   -2.1155    0.0000 C   0  0  0  0  0  0  0  0  0  0  0  0
   -1.2135   -2.7256    0.0000 C   0  0  0  0  0  0  0  0  0  0  0  0
   -1.9635   -4.0247    0.0000 O   0  0  0  0  0  0  0  0  0  0  0  0
   -1.2135   -5.3237    0.0000 Si  0  0  0  0  0  4  0  0  0  0  0  0
   -2.5126   -6.0737    0.0000 C   0  0  0  0  0  0  0  0  0  0  0  0
   -0.4797   -5.0122    0.0000 C   0  0  0  0  0  0  0  0  0  0  0  0
   -0.4635   -6.6227    0.0000 C   0  0  0  0  0  0  0  0  0  0  0  0
   -0.0000   -3.6073    0.0000 C   0  0  0  0  0  0  0  0  0  0  0  0
    0.0972   -4.3985    0.0000 O   0  0  0  0  0  0  0  0  0  0  0  0
    1.2135   -2.7256    0.0000 N   0  0  0  0  0  0  0  0  0  0  0  0
    2.6401   -3.1891    0.0000 C   0  0  0  0  0  0  0  0  0  0  0  0
    3.7548   -2.1855    0.0000 O   0  0  0  0  0  0  0  0  0  0  0  0
    2.9520   -4.6564    0.0000 O   0  0  0  0  0  0  0  0  0  0  0  0
    4.3786   -5.1199    0.0000 C   0  0  0  0  0  0  0  0  0  0  0  0
    3.9150   -6.5465    0.0000 C   0  0  0  0  0  0  0  0  0  0  0  0
    4.8421   -3.6933    0.0000 C   0  0  0  0  0  0  0  0  0  0  0  0
    5.8051   -5.5834    0.0000 C   0  0  0  0  0  0  0  0  0  0  0  0
    0.7500   -1.2990    0.0000 C   0  0  0  0  0  0  0  0  0  0  0  0
    1.5000    0.0000    0.0000 C   0  0  0  0  0  0  0  0  0  0  0  0
    0.7500    1.2990    0.0000 C   0  0  0  0  0  0  0  0  0  0  0  0
   -0.7500    1.2990    0.0000 C   0  0  0  0  0  0  0  0  0  0  0  0
   -1.5000    0.0000    0.0000 C   0  0  0  0  0  0  0  0  0  0  0  0
   -0.7500   -1.2990    0.0000 C   0  0  0  0  0  0  0  0  0  0  0  0
   -3.6406   -4.4890    0.0000 O   0  0  0  0  0  0  0  0  0  0  0  0
   -4.8541   -5.3707    0.0000 Si  0  0  0  0  0  4  0  0  0  0  0  0
   -3.9724   -6.5842    0.0000 C   0  0  0  0  0  0  0  0  0  0  0  0
   -5.7358   -4.1571    0.0000 C   0  0  0  0  0  0  0  0  0  0  0  0
   -6.0676   -6.2523    0.0000 C   0  0  0  0  0  0  0  0  0  0  0  0
   -5.1859   -7.4659    0.0000 C   0  0  0  0  0  0  0  0  0  0  0  0
   -6.9493   -5.0388    0.0000 C   0  0  0  0  0  0  0  0  0  0  0  0
   -7.2812   -7.1340    0.0000 C   0  0  0  0  0  0  0  0  0  0  0  0
   -8.9651   -3.5403    0.0000 C   0  0  0  0  0  0  0  0  0  0  0  0
  -10.3354   -2.9302    0.0000 C   0  0  0  0  0  0  0  0  0  0  0  0
  -10.5275    0.8202    0.0000 C   0  0  0  0  0  0  0  0  0  0  0  0
   -9.9174    2.1905    0.0000 C   0  0  0  0  0  0  0  0  0  0  0  0
   -9.3784   -0.1439    0.0000 C   0  0  0  0  0  0  0  0  0  0  0  0
  -12.1761    2.1552    0.0000 C   0  0  0  0  0  0  0  0  0  0  0  0
  -10.9625    3.0369    0.0000 C   0  0  0  0  0  0  0  0  0  0  0  0
  -13.5464    2.7653    0.0000 C   0  0  0  0  0  0  0  0  0  0  0  0
  1  2  1  0
  2  3  1  0
  2  4  1  0
  4  5  1  0
  5  6  1  0
  6  7  1  0
  7  8  2  0
  8  9  1  0
  9 10  1  0
 10 11  1  0
 11 12  2  0
 12 13  1  0
 13 14  1  0
 14 15  1  0
 15 16  1  0
 16 17  1  0
 16 18  1  0
 16 19  1  0
 14 20  1  0
 20 21  2  0
 20 22  1  0
 22 23  1  0
 23 24  2  0
 23 25  1  0
 25 26  1  0
 26 27  1  0
 26 28  1  0
 26 29  1  0
 22 30  1  0
 30 31  2  0
 31 32  1  0
 32 33  2  0
 33 34  1  0
 34 35  2  0
 12 36  1  0
 36 37  1  0
 37 38  1  0
 37 39  1  0
 37 40  1  0
 40 41  1  0
 40 42  1  0
 40 43  1  0
  9 44  2  0
 44 45  1  0
  4 46  1  0
 46 47  1  0
 46 48  1  0
  4 49  1  0
 49 50  1  0
 49 51  1  0
 45  6  2  0
 35 14  1  0
 35 30  1  0
M  END
$$$$
6
     RDKit          2D

 51 53  0  0  0  0  0  0  0  0999 V2000
    9.2626  -14.0689    0.0000 C   0  0  0  0  0  0  0  0  0  0  0  0
    9.2626  -12.5689    0.0000 C   0  0  0  0  0  0  0  0  0  0  0  0
   10.5616  -11.8189    0.0000 C   0  0  0  0  0  0  0  0  0  0  0  0
    7.9635  -11.8189    0.0000 Si  0  0  0  0  0  4  0  0  0  0  0  0
    8.7135  -10.5199    0.0000 O   0  0  0  0  0  0  0  0  0  0  0  0
    7.9635   -9.2208    0.0000 C   0  0  0  0  0  0  0  0  0  0  0  0
    6.4635   -9.2208    0.0000 C   0  0  0  0  0  0  0  0  0  0  0  0
    5.7135   -7.9218    0.0000 C   0  0  0  0  0  0  0  0  0  0  0  0
    6.4635   -6.6227    0.0000 C   0  0  0  0  0  0  0  0  0  0  0  0
    5.7135   -5.3237    0.0000 C   0  0  0  0  0  0  0  0  0  0  0  0
    4.2135   -5.3237    0.0000 C   0  0  0  0  0  0  0  0  0  0  0  0
    3.4635   -4.0247    0.0000 C   0  0  0  0  0  0  0  0  0  0  0  0
    1.9635   -4.0247    0.0000 C   0  0  0  0  0  0  0  0  0  0  0  0
    1.2135   -2.7256    0.0000 C   0  0  0  0  0  0  0  0  0  0  0  0
    2.5838   -2.1155    0.0000 O   0  0  0  0  0  0  0  0  0  0  0  0
    2.7406   -0.6237    0.0000 Si  0  0  0  0  0  4  0  0  0  0  0  0
    4.2324   -0.7805    0.0000 C   0  0  0  0  0  0  0  0  0  0  0  0
    1.9916   -0.3510    0.0000 C   0  0  0  0  0  0  0  0  0  0  0  0
    2.8974    0.8680    0.0000 C   0  0  0  0  0  0  0  0  0  0  0  0
    0.7500   -1.2990    0.0000 C   0  0  0  0  0  0  0  0  0  0  0  0
    1.5000    0.0000    0.0000 C   0  0  0  0  0  0  0  0  0  0  0  0
    0.7500    1.2990    0.0000 C   0  0  0  0  0  0  0  0  0  0  0  0
   -0.7500    1.2990    0.0000 C   0  0  0  0  0  0  0  0  0  0  0  0
   -1.5000    0.0000    0.0000 C   0  0  0  0  0  0  0  0  0  0  0  0
   -0.7500   -1.2990    0.0000 C   0  0  0  0  0  0  0  0  0  0  0  0
   -1.2135   -2.7256    0.0000 N   0  0  0  0  0  0  0  0  0  0  0  0
   -2.6401   -3.1891    0.0000 C   0  0  0  0  0  0  0  0  0  0  0  0
   -2.9520   -4.6564    0.0000 O   0  0  0  0  0  0  0  0  0  0  0  0
   -3.7548   -2.1855    0.0000 O   0  0  0  0  0  0  0  0  0  0  0  0
   -5.1814   -2.6490    0.0000 C   0  0  0  0  0  0  0  0  0  0  0  0
   -5.6449   -1.2224    0.0000 C   0  0  0  0  0  0  0  0  0  0  0  0
   -4.7179   -4.0756    0.0000 C   0  0  0  0  0  0  0  0  0  0  0  0
   -6.6080   -3.1125    0.0000 C   0  0  0  0  0  0  0  0  0  0  0  0
    0.0000   -3.6073    0.0000 C   0  0  0  0  0  0  0  0  0  0  0  0
    0.0000   -5.1073    0.0000 O   0  0  0  0  0  0  0  0  0  0  0  0
    4.2135   -2.7256    0.0000 O   0  0  0  0  0  0  0  0  0  0  0  0
    5.7135   -2.7256    0.0000 Si  0  0  0  0  0  4  0  0  0  0  0  0
    5.7135   -1.2256    0.0000 C   0  0  0  0  0  0  0  0  0  0  0  0
    5.7135   -4.2256    0.0000 C   0  0  0  0  0  0  0  0  0  0  0  0
    7.2135   -2.7256    0.0000 C   0  0  0  0  0  0  0  0  0  0  0  0
    7.2135   -1.2256    0.0000 C   0  0  0  0  0  0  0  0  0  0  0  0
    7.2135   -4.2256    0.0000 C   0  0  0  0  0  0  0  0  0  0  0  0
    8.7135   -2.7256    0.0000 C   0  0  0  0  0  0  0  0  0  0  0  0
    7.9635   -6.6227    0.0000 C   0  0  0  0  0  0  0  0  0  0  0  0
    8.7135   -7.9218    0.0000 C   0  0  0  0  0  0  0  0  0  0  0  0
    6.6645  -11.0689    0.0000 C   0  0  0  0  0  0  0  0  0  0  0  0
    5.3654  -11.8189    0.0000 C   0  0  0  0  0  0  0  0  0  0  0  0
    6.3015   -9.6135    0.0000 C   0  0  0  0  0  0  0  0  0  0  0  0
    7.2135  -13.1179    0.0000 C   0  0  0  0  0  0  0  0  0  0  0  0
    5.7135  -13.1179    0.0000 C   0  0  0  0  0  0  0  0  0  0  0  0
    7.9635  -14.4170    0.0000 C   0  0  0  0  0  0  0  0  0  0  0  0
  1  2  1  0
  2  3  1  0
  2  4  1  0
  4  5  1  0
  5  6  1  0
  6  7  1  0
  7  8  2  0
  8  9  1  0
  9 10  1  0
 10 11  1  0
 11 12  2  0
 12 13  1  0
 13 14  1  0
 14 15  1  0
 15 16  1  0
 16 17  1  0
 16 18  1  0
 16 19  1  0
 14 20  1  0
 20 21  2  0
 21 22  1  0
 22 23  2  0
 23 24  1  0
 24 25  2  0
 25 26  1  0
 26 27  1  0
 27 28  2  0
 27 29  1  0
 29 30  1  0
 30 31  1  0
 30 32  1  0
 30 33  1  0
 26 34  1  0
 34 35  1  0
 12 36  1  0
 36 37  1  0
 37 38  1  0
 37 39  1  0
 37 40  1  0
 40 41  1  0
 40 42  1  0
 40 43  1  0
  9 44  2  0
 44 45  1  0
  4 46  1  0
 46 47  1  0
 46 48  1  0
  4 49  1  0
 49 50  1  0
 49 51  1  0
 45  6  2  0
 34 14  1  0
 25 20  1  0
M  END
$$$$
4
     RDKit          2D

 38 41  0  0  0  0  0  0  0  0999 V2000
   -2.1973  -15.3157    0.0000 C   0  0  0  0  0  0  0  0  0  0  0  0
   -2.3541  -13.8239    0.0000 C   0  0  0  0  0  0  0  0  0  0  0  0
   -3.7244  -13.2138    0.0000 C   0  0  0  0  0  0  0  0  0  0  0  0
   -1.1406  -12.9422    0.0000 Si  0  0  0  0  0  4  0  0  0  0  0  0
   -2.0223  -11.7287    0.0000 O   0  0  0  0  0  0  0  0  0  0  0  0
   -1.4122  -10.3584    0.0000 C   0  0  0  0  0  0  0  0  0  0  0  0
   -2.2938   -9.1448    0.0000 C   0  0  0  0  0  0  0  0  0  0  0  0
   -1.6837   -7.7745    0.0000 C   0  0  0  0  0  0  0  0  0  0  0  0
   -0.1920   -7.6177    0.0000 C   0  0  0  0  0  0  0  0  0  0  0  0
    0.4182   -6.2474    0.0000 C   0  0  0  0  0  0  0  0  0  0  0  0
   -0.4635   -5.0339    0.0000 C   0  0  0  0  0  0  0  0  0  0  0  0
   -1.9635   -5.0339    0.0000 C   0  0  0  0  0  0  0  0  0  0  0  0
   -2.8452   -6.2474    0.0000 O   0  0  0  0  0  0  0  0  0  0  0  0
   -2.4271   -3.6073    0.0000 C   0  0  0  0  0  0  0  0  0  0  0  0
   -1.2135   -2.7256    0.0000 C   0  0  0  0  0  0  0  0  0  0  0  0
   -0.0000   -3.6073    0.0000 C   0  0  0  0  0  0  0  0  0  0  0  0
    1.2135   -2.7256    0.0000 N   0  0  0  0  0  0  0  0  0  0  0  0
    2.6401   -3.1891    0.0000 C   0  0  0  0  0  0  0  0  0  0  0  0
    3.7548   -2.1855    0.0000 O   0  0  0  0  0  0  0  0  0  0  0  0
    2.9520   -4.6564    0.0000 O   0  0  0  0  0  0  0  0  0  0  0  0
    4.3786   -5.1199    0.0000 C   0  0  0  0  0  0  0  0  0  0  0  0
    3.9150   -6.5465    0.0000 C   0  0  0  0  0  0  0  0  0  0  0  0
    4.8421   -3.6933    0.0000 C   0  0  0  0  0  0  0  0  0  0  0  0
    5.8051   -5.5834    0.0000 C   0  0  0  0  0  0  0  0  0  0  0  0
    0.7500   -1.2990    0.0000 C   0  0  0  0  0  0  0  0  0  0  0  0
    1.5000    0.0000    0.0000 C   0  0  0  0  0  0  0  0  0  0  0  0
    0.7500    1.2990    0.0000 C   0  0  0  0  0  0  0  0  0  0  0  0
   -0.7500    1.2990    0.0000 C   0  0  0  0  0  0  0  0  0  0  0  0
   -1.5000    0.0000    0.0000 C   0  0  0  0  0  0  0  0  0  0  0  0
   -0.7500   -1.2990    0.0000 C   0  0  0  0  0  0  0  0  0  0  0  0
    0.6897   -8.8313    0.0000 C   0  0  0  0  0  0  0  0  0  0  0  0
    0.0796  -10.2016    0.0000 C   0  0  0  0  0  0  0  0  0  0  0  0
    0.0729  -12.0605    0.0000 C   0  0  0  0  0  0  0  0  0  0  0  0
    0.2252  -10.9777    0.0000 C   0  0  0  0  0  0  0  0  0  0  0  0
    1.4433  -12.6706    0.0000 C   0  0  0  0  0  0  0  0  0  0  0  0
   -0.2589  -14.1557    0.0000 C   0  0  0  0  0  0  0  0  0  0  0  0
    1.2329  -13.9989    0.0000 C   0  0  0  0  0  0  0  0  0  0  0  0
   -0.8690  -15.5261    0.0000 C   0  0  0  0  0  0  0  0  0  0  0  0
  1  2  1  0
  2  3  1  0
  2  4  1  0
  4  5  1  0
  5  6  1  0
  6  7  1  0
  7  8  2  0
  8  9  1  0
  9 10  1  0
 10 11  1  0
 11 12  1  0
 12 13  2  0
 12 14  1  0
 14 15  1  0
 15 16  2  0
 16 17  1  0
 17 18  1  0
 18 19  2  0
 18 20  1  0
 20 21  1  0
 21 22  1  0
 21 23  1  0
 21 24  1  0
 17 25  1  0
 25 26  2  0
 26 27  1  0
 27 28  2  0
 28 29  1  0
 29 30  2  0
  9 31  2  0
 31 32  1  0
  4 33  1  0
 33 34  1  0
 33 35  1  0
  4 36  1  0
 36 37  1  0
 36 38  1  0
 32  6  2  0
 16 11  1  0
 30 25  1  0
 30 15  1  0
M  END
$$$$
12
     RDKit          2D

 76 83  0  0  0  0  0  0  0  0999 V2000
   -4.5708  -14.2589    0.0000 C   0  0  0  0  0  0  0  0  0  0  0  0
   -3.3573  -13.3773    0.0000 C   0  0  0  0  0  0  0  0  0  0  0  0
   -1.9869  -13.9874    0.0000 C   0  0  0  0  0  0  0  0  0  0  0  0
   -3.5141  -11.8855    0.0000 Si  0  0  0  0  0  4  0  0  0  0  0  0
   -2.0223  -11.7287    0.0000 O   0  0  0  0  0  0  0  0  0  0  0  0
   -1.4122  -10.3584    0.0000 C   0  0  0  0  0  0  0  0  0  0  0  0
   -2.2938   -9.1448    0.0000 C   0  0  0  0  0  0  0  0  0  0  0  0
   -1.6837   -7.7745    0.0000 C   0  0  0  0  0  0  0  0  0  0  0  0
   -0.1920   -7.6177    0.0000 C   0  0  0  0  0  0  0  0  0  0  0  0
    0.4182   -6.2474    0.0000 C   0  0  0  0  0  0  0  0  0  0  0  0
   -0.4635   -5.0339    0.0000 C   0  0  0  0  0  0  0  0  0  0  0  0
   -1.9635   -5.0339    0.0000 C   0  0  0  0  0  0  0  0  0  0  0  0
   -2.8452   -6.2474    0.0000 O   0  0  0  0  0  0  0  0  0  0  0  0
   -2.4271   -3.6073    0.0000 C   0  0  0  0  0  0  0  0  0  0  0  0
   -3.8536   -3.1438    0.0000 C   0  0  0  0  0  0  0  0  0  0  0  0
   -4.3172   -1.7172    0.0000 C   0  0  0  0  0  0  0  0  0  0  0  0
   -3.4355   -0.5037    0.0000 O   0  0  0  0  0  0  0  0  0  0  0  0
   -5.8172   -1.7172    0.0000 C   0  0  0  0  0  0  0  0  0  0  0  0
   -6.6988   -0.5037    0.0000 C   0  0  0  0  0  0  0  0  0  0  0  0
   -8.1906   -0.6605    0.0000 C   0  0  0  0  0  0  0  0  0  0  0  0
   -9.0723    0.5531    0.0000 C   0  0  0  0  0  0  0  0  0  0  0  0
  -10.5641    0.3963    0.0000 C   0  0  0  0  0  0  0  0  0  0  0  0
  -11.1742   -0.9740    0.0000 C   0  0  0  0  0  0  0  0  0  0  0  0
  -12.6660   -1.1308    0.0000 O   0  0  0  0  0  0  0  0  0  0  0  0
  -13.5476    0.0827    0.0000 Si  0  0  0  0  0  4  0  0  0  0  0  0
  -12.3341    0.9644    0.0000 C   0  0  0  0  0  0  0  0  0  0  0  0
  -12.4909    2.4562    0.0000 C   0  0  0  0  0  0  0  0  0  0  0  0
  -11.2572    0.7745    0.0000 C   0  0  0  0  0  0  0  0  0  0  0  0
  -14.7612   -0.7990    0.0000 C   0  0  0  0  0  0  0  0  0  0  0  0
  -14.6044   -2.2908    0.0000 C   0  0  0  0  0  0  0  0  0  0  0  0
  -16.1315   -0.1889    0.0000 C   0  0  0  0  0  0  0  0  0  0  0  0
  -14.4293    1.2962    0.0000 C   0  0  0  0  0  0  0  0  0  0  0  0
  -15.9211    1.1394    0.0000 C   0  0  0  0  0  0  0  0  0  0  0  0
  -13.8192    2.6665    0.0000 C   0  0  0  0  0  0  0  0  0  0  0  0
  -10.2925   -2.1876    0.0000 C   0  0  0  0  0  0  0  0  0  0  0  0
   -8.8007   -2.0308    0.0000 C   0  0  0  0  0  0  0  0  0  0  0  0
   -6.2807   -3.1438    0.0000 C   0  0  0  0  0  0  0  0  0  0  0  0
   -5.0672   -4.0255    0.0000 C   0  0  0  0  0  0  0  0  0  0  0  0
   -5.5307   -5.4520    0.0000 C   0  0  0  0  0  0  0  0  0  0  0  0
   -4.7807   -6.7511    0.0000 C   0  0  0  0  0  0  0  0  0  0  0  0
   -5.5307   -8.0501    0.0000 C   0  0  0  0  0  0  0  0  0  0  0  0
   -7.0307   -8.0501    0.0000 C   0  0  0  0  0  0  0  0  0  0  0  0
   -7.7807   -6.7511    0.0000 C   0  0  0  0  0  0  0  0  0  0  0  0
   -7.0307   -5.4520    0.0000 C   0  0  0  0  0  0  0  0  0  0  0  0
   -7.4942   -4.0255    0.0000 N   0  0  0  0  0  0  0  0  0  0  0  0
   -8.9208   -3.5619    0.0000 C   0  0  0  0  0  0  0  0  0  0  0  0
  -10.0355   -4.5656    0.0000 O   0  0  0  0  0  0  0  0  0  0  0  0
   -9.2327   -2.0947    0.0000 O   0  0  0  0  0  0  0  0  0  0  0  0
  -10.6592   -1.6312    0.0000 C   0  0  0  0  0  0  0  0  0  0  0  0
  -10.1957   -0.2046    0.0000 C   0  0  0  0  0  0  0  0  0  0  0  0
  -11.1228   -3.0578    0.0000 C   0  0  0  0  0  0  0  0  0  0  0  0
  -12.1556   -1.5266    0.0000 C   0  0  0  0  0  0  0  0  0  0  0  0
   -1.2135   -2.7256    0.0000 C   0  0  0  0  0  0  0  0  0  0  0  0
   -0.0000   -3.6073    0.0000 C   0  0  0  0  0  0  0  0  0  0  0  0
    1.2135   -2.7256    0.0000 N   0  0  0  0  0  0  0  0  0  0  0  0
    2.6401   -3.1891    0.0000 C   0  0  0  0  0  0  0  0  0  0  0  0
    3.7548   -2.1855    0.0000 O   0  0  0  0  0  0  0  0  0  0  0  0
    2.9520   -4.6564    0.0000 O   0  0  0  0  0  0  0  0  0  0  0  0
    4.3786   -5.1199    0.0000 C   0  0  0  0  0  0  0  0  0  0  0  0
    3.9150   -6.5465    0.0000 C   0  0  0  0  0  0  0  0  0  0  0  0
    4.8421   -3.6933    0.0000 C   0  0  0  0  0  0  0  0  0  0  0  0
    5.8051   -5.5834    0.0000 C   0  0  0  0  0  0  0  0  0  0  0  0
    0.7500   -1.2990    0.0000 C   0  0  0  0  0  0  0  0  0  0  0  0
    1.5000    0.0000    0.0000 C   0  0  0  0  0  0  0  0  0  0  0  0
    0.7500    1.2990    0.0000 C   0  0  0  0  0  0  0  0  0  0  0  0
   -0.7500    1.2990    0.0000 C   0  0  0  0  0  0  0  0  0  0  0  0
   -1.5000    0.0000    0.0000 C   0  0  0  0  0  0  0  0  0  0  0  0
   -0.7500   -1.2990    0.0000 C   0  0  0  0  0  0  0  0  0  0  0  0
    0.6897   -8.8313    0.0000 C   0  0  0  0  0  0  0  0  0  0  0  0
    0.0796  -10.2016    0.0000 C   0  0  0  0  0  0  0  0  0  0  0  0
   -3.6708  -10.3937    0.0000 C   0  0  0  0  0  0  0  0  0  0  0  0
   -5.0412   -9.7836    0.0000 C   0  0  0  0  0  0  0  0  0  0  0  0
   -2.7067   -9.2446    0.0000 C   0  0  0  0  0  0  0  0  0  0  0  0
   -5.0058  -12.0423    0.0000 C   0  0  0  0  0  0  0  0  0  0  0  0
   -5.8875  -10.8287    0.0000 C   0  0  0  0  0  0  0  0  0  0  0  0
   -5.6159  -13.4126    0.0000 C   0  0  0  0  0  0  0  0  0  0  0  0
  1  2  1  0
  2  3  1  0
  2  4  1  0
  4  5  1  0
  5  6  1  0
  6  7  1  0
  7  8  2  0
  8  9  1  0
  9 10  1  0
 10 11  1  0
 11 12  1  0
 12 13  2  0
 12 14  1  0
 14 15  1  0
 15 16  1  0
 16 17  2  0
 16 18  1  0
 18 19  1  0
 19 20  1  0
 20 21  1  0
 21 22  2  0
 22 23  1  0
 23 24  1  0
 24 25  1  0
 25 26  1  0
 26 27  1  0
 26 28  1  0
 25 29  1  0
 29 30  1  0
 29 31  1  0
 25 32  1  0
 32 33  1  0
 32 34  1  0
 23 35  2  0
 35 36  1  0
 18 37  1  0
 37 38  2  0
 38 39  1  0
 39 40  2  0
 40 41  1  0
 41 42  2  0
 42 43  1  0
 43 44  2  0
 44 45  1  0
 45 46  1  0
 46 47  2  0
 46 48  1  0
 48 49  1  0
 49 50  1  0
 49 51  1  0
 49 52  1  0
 14 53  1  0
 53 54  2  0
 54 55  1  0
 55 56  1  0
 56 57  2  0
 56 58  1  0
 58 59  1  0
 59 60  1  0
 59 61  1  0
 59 62  1  0
 55 63  1  0
 63 64  2  0
 64 65  1  0
 65 66  2  0
 66 67  1  0
 67 68  2  0
  9 69  2  0
 69 70  1  0
  4 71  1  0
 71 72  1  0
 71 73  1  0
  4 74  1  0
 74 75  1  0
 74 76  1  0
 70  6  2  0
 54 11  1  0
 68 63  1  0
 38 15  1  0
 44 39  1  0
 68 53  1  0
 36 20  2  0
 45 37  1  0
M  END
$$$$
13
     RDKit          2D

 62 69  0  0  0  0  0  0  0  0999 V2000
   -4.5708  -14.2589    0.0000 C   0  0  0  0  0  0  0  0  0  0  0  0
   -3.3573  -13.3773    0.0000 C   0  0  0  0  0  0  0  0  0  0  0  0
   -1.9869  -13.9874    0.0000 C   0  0  0  0  0  0  0  0  0  0  0  0
   -3.5141  -11.8855    0.0000 Si  0  0  0  0  0  4  0  0  0  0  0  0
   -2.0223  -11.7287    0.0000 O   0  0  0  0  0  0  0  0  0  0  0  0
   -1.4122  -10.3584    0.0000 C   0  0  0  0  0  0  0  0  0  0  0  0
   -2.2938   -9.1448    0.0000 C   0  0  0  0  0  0  0  0  0  0  0  0
   -1.6837   -7.7745    0.0000 C   0  0  0  0  0  0  0  0  0  0  0  0
   -0.1920   -7.6177    0.0000 C   0  0  0  0  0  0  0  0  0  0  0  0
    0.4182   -6.2474    0.0000 C   0  0  0  0  0  0  0  0  0  0  0  0
   -0.4635   -5.0339    0.0000 C   0  0  0  0  0  0  0  0  0  0  0  0
   -1.9635   -5.0339    0.0000 C   0  0  0  0  0  0  0  0  0  0  0  0
   -2.8452   -6.2474    0.0000 O   0  0  0  0  0  0  0  0  0  0  0  0
   -2.4271   -3.6073    0.0000 C   0  0  0  0  0  0  0  0  0  0  0  0
   -3.8536   -3.1438    0.0000 C   0  0  0  0  0  0  0  0  0  0  0  0
   -4.3172   -1.7172    0.0000 C   0  0  0  0  0  0  0  0  0  0  0  0
   -3.4355   -0.5037    0.0000 O   0  0  0  0  0  0  0  0  0  0  0  0
   -5.8172   -1.7172    0.0000 C   0  0  0  0  0  0  0  0  0  0  0  0
   -6.6988   -0.5037    0.0000 C   0  0  0  0  0  0  0  0  0  0  0  0
   -8.1906   -0.6605    0.0000 C   0  0  0  0  0  0  0  0  0  0  0  0
   -9.0723    0.5531    0.0000 C   0  0  0  0  0  0  0  0  0  0  0  0
  -10.5641    0.3963    0.0000 C   0  0  0  0  0  0  0  0  0  0  0  0
  -11.1742   -0.9740    0.0000 C   0  0  0  0  0  0  0  0  0  0  0  0
  -12.6660   -1.1308    0.0000 O   0  0  0  0  0  0  0  0  0  0  0  0
  -13.5476    0.0827    0.0000 Si  0  0  0  0  0  4  0  0  0  0  0  0
  -12.3341    0.9644    0.0000 C   0  0  0  0  0  0  0  0  0  0  0  0
  -11.2572    0.7745    0.0000 C   0  0  0  0  0  0  0  0  0  0  0  0
  -12.4909    2.4562    0.0000 C   0  0  0  0  0  0  0  0  0  0  0  0
  -14.7612   -0.7990    0.0000 C   0  0  0  0  0  0  0  0  0  0  0  0
  -16.1315   -0.1889    0.0000 C   0  0  0  0  0  0  0  0  0  0  0  0
  -14.6044   -2.2908    0.0000 C   0  0  0  0  0  0  0  0  0  0  0  0
  -14.4293    1.2962    0.0000 C   0  0  0  0  0  0  0  0  0  0  0  0
  -15.9211    1.1394    0.0000 C   0  0  0  0  0  0  0  0  0  0  0  0
  -13.8192    2.6665    0.0000 C   0  0  0  0  0  0  0  0  0  0  0  0
  -10.2925   -2.1876    0.0000 C   0  0  0  0  0  0  0  0  0  0  0  0
   -8.8007   -2.0308    0.0000 C   0  0  0  0  0  0  0  0  0  0  0  0
   -6.2807   -3.1438    0.0000 C   0  0  0  0  0  0  0  0  0  0  0  0
   -7.4942   -4.0255    0.0000 N   0  0  0  0  0  0  0  0  0  0  0  0
   -7.0307   -5.4520    0.0000 C   0  0  0  0  0  0  0  0  0  0  0  0
   -7.7807   -6.7511    0.0000 C   0  0  0  0  0  0  0  0  0  0  0  0
   -7.0307   -8.0501    0.0000 C   0  0  0  0  0  0  0  0  0  0  0  0
   -5.5307   -8.0501    0.0000 C   0  0  0  0  0  0  0  0  0  0  0  0
   -4.7807   -6.7511    0.0000 C   0  0  0  0  0  0  0  0  0  0  0  0
   -5.5307   -5.4520    0.0000 C   0  0  0  0  0  0  0  0  0  0  0  0
   -5.0672   -4.0255    0.0000 C   0  0  0  0  0  0  0  0  0  0  0  0
   -1.2135   -2.7256    0.0000 C   0  0  0  0  0  0  0  0  0  0  0  0
   -0.0000   -3.6073    0.0000 C   0  0  0  0  0  0  0  0  0  0  0  0
    1.2135   -2.7256    0.0000 N   0  0  0  0  0  0  0  0  0  0  0  0
    0.7500   -1.2990    0.0000 C   0  0  0  0  0  0  0  0  0  0  0  0
    1.5000    0.0000    0.0000 C   0  0  0  0  0  0  0  0  0  0  0  0
    0.7500    1.2990    0.0000 C   0  0  0  0  0  0  0  0  0  0  0  0
   -0.7500    1.2990    0.0000 C   0  0  0  0  0  0  0  0  0  0  0  0
   -1.5000    0.0000    0.0000 C   0  0  0  0  0  0  0  0  0  0  0  0
   -0.7500   -1.2990    0.0000 C   0  0  0  0  0  0  0  0  0  0  0  0
    0.6897   -8.8313    0.0000 C   0  0  0  0  0  0  0  0  0  0  0  0
    0.0796  -10.2016    0.0000 C   0  0  0  0  0  0  0  0  0  0  0  0
   -3.6708  -10.3937    0.0000 C   0  0  0  0  0  0  0  0  0  0  0  0
   -5.0412   -9.7836    0.0000 C   0  0  0  0  0  0  0  0  0  0  0  0
   -2.9680   -9.5560    0.0000 C   0  0  0  0  0  0  0  0  0  0  0  0
   -5.0058  -12.0423    0.0000 C   0  0  0  0  0  0  0  0  0  0  0  0
   -5.8875  -10.8287    0.0000 C   0  0  0  0  0  0  0  0  0  0  0  0
   -5.6159  -13.4126    0.0000 C   0  0  0  0  0  0  0  0  0  0  0  0
  1  2  1  0
  2  3  1  0
  2  4  1  0
  4  5  1  0
  5  6  1  0
  6  7  1  0
  7  8  2  0
  8  9  1  0
  9 10  1  0
 10 11  1  0
 11 12  1  0
 12 13  2  0
 12 14  1  0
 14 15  1  0
 15 16  1  0
 16 17  2  0
 16 18  1  0
 18 19  1  0
 19 20  1  0
 20 21  1  0
 21 22  2  0
 22 23  1  0
 23 24  1  0
 24 25  1  0
 25 26  1  0
 26 27  1  0
 26 28  1  0
 25 29  1  0
 29 30  1  0
 29 31  1  0
 25 32  1  0
 32 33  1  0
 32 34  1  0
 23 35  2  0
 35 36  1  0
 18 37  1  0
 37 38  1  0
 38 39  1  0
 39 40  2  0
 40 41  1  0
 41 42  2  0
 42 43  1  0
 43 44  2  0
 44 45  1  0
 14 46  1  0
 46 47  2  0
 47 48  1  0
 48 49  1  0
 49 50  2  0
 50 51  1  0
 51 52  2  0
 52 53  1  0
 53 54  2  0
  9 55  2  0
 55 56  1  0
  4 57  1  0
 57 58  1  0
 57 59  1  0
  4 60  1  0
 60 61  1  0
 60 62  1  0
 56  6  2  0
 47 11  1  0
 54 49  1  0
 45 15  1  0
 54 46  1  0
 36 20  2  0
 45 37  2  0
 44 39  1  0
M  END
$$$$
14
     RDKit          2D

 69 76  0  0  0  0  0  0  0  0999 V2000
   -4.5708  -14.2589    0.0000 C   0  0  0  0  0  0  0  0  0  0  0  0
   -3.3573  -13.3773    0.0000 C   0  0  0  0  0  0  0  0  0  0  0  0
   -1.9869  -13.9874    0.0000 C   0  0  0  0  0  0  0  0  0  0  0  0
   -3.5141  -11.8855    0.0000 Si  0  0  0  0  0  4  0  0  0  0  0  0
   -2.0223  -11.7287    0.0000 O   0  0  0  0  0  0  0  0  0  0  0  0
   -1.4122  -10.3584    0.0000 C   0  0  0  0  0  0  0  0  0  0  0  0
   -2.2938   -9.1448    0.0000 C   0  0  0  0  0  0  0  0  0  0  0  0
   -1.6837   -7.7745    0.0000 C   0  0  0  0  0  0  0  0  0  0  0  0
   -0.1920   -7.6177    0.0000 C   0  0  0  0  0  0  0  0  0  0  0  0
    0.4182   -6.2474    0.0000 C   0  0  0  0  0  0  0  0  0  0  0  0
   -0.4635   -5.0339    0.0000 C   0  0  0  0  0  0  0  0  0  0  0  0
   -1.9635   -5.0339    0.0000 C   0  0  0  0  0  0  0  0  0  0  0  0
   -2.8452   -6.2474    0.0000 O   0  0  0  0  0  0  0  0  0  0  0  0
   -2.4271   -3.6073    0.0000 C   0  0  0  0  0  0  0  0  0  0  0  0
   -3.8536   -3.1438    0.0000 C   0  0  0  0  0  0  0  0  0  0  0  0
   -4.3172   -1.7172    0.0000 C   0  0  0  0  0  0  0  0  0  0  0  0
   -3.4355   -0.5037    0.0000 O   0  0  0  0  0  0  0  0  0  0  0  0
   -5.8172   -1.7172    0.0000 C   0  0  0  0  0  0  0  0  0  0  0  0
   -6.6988   -0.5037    0.0000 C   0  0  0  0  0  0  0  0  0  0  0  0
   -8.1906   -0.6605    0.0000 C   0  0  0  0  0  0  0  0  0  0  0  0
   -9.0723    0.5531    0.0000 C   0  0  0  0  0  0  0  0  0  0  0  0
  -10.5641    0.3963    0.0000 C   0  0  0  0  0  0  0  0  0  0  0  0
  -11.1742   -0.9740    0.0000 C   0  0  0  0  0  0  0  0  0  0  0  0
  -12.6660   -1.1308    0.0000 O   0  0  0  0  0  0  0  0  0  0  0  0
  -13.5476    0.0827    0.0000 Si  0  0  0  0  0  4  0  0  0  0  0  0
  -14.7612   -0.7990    0.0000 C   0  0  0  0  0  0  0  0  0  0  0  0
  -16.1315   -0.1889    0.0000 C   0  0  0  0  0  0  0  0  0  0  0  0
  -14.6044   -2.2908    0.0000 C   0  0  0  0  0  0  0  0  0  0  0  0
  -12.3341    0.9644    0.0000 C   0  0  0  0  0  0  0  0  0  0  0  0
  -12.4909    2.4562    0.0000 C   0  0  0  0  0  0  0  0  0  0  0  0
  -11.2572    0.7745    0.0000 C   0  0  0  0  0  0  0  0  0  0  0  0
  -14.4293    1.2962    0.0000 C   0  0  0  0  0  0  0  0  0  0  0  0
  -13.8192    2.6665    0.0000 C   0  0  0  0  0  0  0  0  0  0  0  0
  -15.9211    1.1394    0.0000 C   0  0  0  0  0  0  0  0  0  0  0  0
  -10.2925   -2.1876    0.0000 C   0  0  0  0  0  0  0  0  0  0  0  0
   -8.8007   -2.0308    0.0000 C   0  0  0  0  0  0  0  0  0  0  0  0
   -6.2807   -3.1438    0.0000 C   0  0  0  0  0  0  0  0  0  0  0  0
   -5.0672   -4.0255    0.0000 C   0  0  0  0  0  0  0  0  0  0  0  0
   -5.5307   -5.4520    0.0000 C   0  0  0  0  0  0  0  0  0  0  0  0
   -4.7807   -6.7511    0.0000 C   0  0  0  0  0  0  0  0  0  0  0  0
   -5.5307   -8.0501    0.0000 C   0  0  0  0  0  0  0  0  0  0  0  0
   -7.0307   -8.0501    0.0000 C   0  0  0  0  0  0  0  0  0  0  0  0
   -7.7807   -6.7511    0.0000 C   0  0  0  0  0  0  0  0  0  0  0  0
   -7.0307   -5.4520    0.0000 C   0  0  0  0  0  0  0  0  0  0  0  0
   -7.4942   -4.0255    0.0000 N   0  0  0  0  0  0  0  0  0  0  0  0
   -8.9208   -3.5619    0.0000 C   0  0  0  0  0  0  0  0  0  0  0  0
  -10.0355   -4.5656    0.0000 O   0  0  0  0  0  0  0  0  0  0  0  0
   -9.2327   -2.0947    0.0000 O   0  0  0  0  0  0  0  0  0  0  0  0
  -10.6592   -1.6312    0.0000 C   0  0  0  0  0  0  0  0  0  0  0  0
  -10.1957   -0.2046    0.0000 C   0  0  0  0  0  0  0  0  0  0  0  0
  -11.1228   -3.0578    0.0000 C   0  0  0  0  0  0  0  0  0  0  0  0
  -12.1556   -1.5266    0.0000 C   0  0  0  0  0  0  0  0  0  0  0  0
   -1.2135   -2.7256    0.0000 C   0  0  0  0  0  0  0  0  0  0  0  0
   -0.0000   -3.6073    0.0000 C   0  0  0  0  0  0  0  0  0  0  0  0
    1.2135   -2.7256    0.0000 N   0  0  0  0  0  0  0  0  0  0  0  0
    0.7500   -1.2990    0.0000 C   0  0  0  0  0  0  0  0  0  0  0  0
    1.5000    0.0000    0.0000 C   0  0  0  0  0  0  0  0  0  0  0  0
    0.7500    1.2990    0.0000 C   0  0  0  0  0  0  0  0  0  0  0  0
   -0.7500    1.2990    0.0000 C   0  0  0  0  0  0  0  0  0  0  0  0
   -1.5000    0.0000    0.0000 C   0  0  0  0  0  0  0  0  0  0  0  0
   -0.7500   -1.2990    0.0000 C   0  0  0  0  0  0  0  0  0  0  0  0
    0.6897   -8.8313    0.0000 C   0  0  0  0  0  0  0  0  0  0  0  0
    0.0796  -10.2016    0.0000 C   0  0  0  0  0  0  0  0  0  0  0  0
   -3.6708  -10.3937    0.0000 C   0  0  0  0  0  0  0  0  0  0  0  0
   -5.0412   -9.7836    0.0000 C   0  0  0  0  0  0  0  0  0  0  0  0
   -2.7067   -9.2446    0.0000 C   0  0  0  0  0  0  0  0  0  0  0  0
   -5.0058  -12.0423    0.0000 C   0  0  0  0  0  0  0  0  0  0  0  0
   -5.8875  -10.8287    0.0000 C   0  0  0  0  0  0  0  0  0  0  0  0
   -5.6159  -13.4126    0.0000 C   0  0  0  0  0  0  0  0  0  0  0  0
  1  2  1  0
  2  3  1  0
  2  4  1  0
  4  5  1  0
  5  6  1  0
  6  7  1  0
  7  8  2  0
  8  9  1  0
  9 10  1  0
 10 11  1  0
 11 12  1  0
 12 13  2  0
 12 14  1  0
 14 15  1  0
 15 16  1  0
 16 17  2  0
 16 18  1  0
 18 19  1  0
 19 20  1  0
 20 21  1  0
 21 22  2  0
 22 23  1  0
 23 24  1  0
 24 25  1  0
 25 26  1  0
 26 27  1  0
 26 28  1  0
 25 29  1  0
 29 30  1  0
 29 31  1  0
 25 32  1  0
 32 33  1  0
 32 34  1  0
 23 35  2  0
 35 36  1  0
 18 37  1  0
 37 38  2  0
 38 39  1  0
 39 40  2  0
 40 41  1  0
 41 42  2  0
 42 43  1  0
 43 44  2  0
 44 45  1  0
 45 46  1  0
 46 47  2  0
 46 48  1  0
 48 49  1  0
 49 50  1  0
 49 51  1  0
 49 52  1  0
 14 53  1  0
 53 54  2  0
 54 55  1  0
 55 56  1  0
 56 57  2  0
 57 58  1  0
 58 59  2  0
 59 60  1  0
 60 61  2  0
  9 62  2  0
 62 63  1  0
  4 64  1  0
 64 65  1  0
 64 66  1  0
  4 67  1  0
 67 68  1  0
 67 69  1  0
 63  6  2  0
 54 11  1  0
 61 56  1  0
 38 15  1  0
 44 39  1  0
 61 53  1  0
 36 20  2  0
 45 37  1  0
M  END
$$$$
15
     RDKit          2D

 62 69  0  0  0  0  0  0  0  0999 V2000
   -4.5708  -14.2589    0.0000 C   0  0  0  0  0  0  0  0  0  0  0  0
   -3.3573  -13.3773    0.0000 C   0  0  0  0  0  0  0  0  0  0  0  0
   -1.9869  -13.9874    0.0000 C   0  0  0  0  0  0  0  0  0  0  0  0
   -3.5141  -11.8855    0.0000 Si  0  0  0  0  0  4  0  0  0  0  0  0
   -2.0223  -11.7287    0.0000 O   0  0  0  0  0  0  0  0  0  0  0  0
   -1.4122  -10.3584    0.0000 C   0  0  0  0  0  0  0  0  0  0  0  0
   -2.2938   -9.1448    0.0000 C   0  0  0  0  0  0  0  0  0  0  0  0
   -1.6837   -7.7745    0.0000 C   0  0  0  0  0  0  0  0  0  0  0  0
   -0.1920   -7.6177    0.0000 C   0  0  0  0  0  0  0  0  0  0  0  0
    0.4182   -6.2474    0.0000 C   0  0  0  0  0  0  0  0  0  0  0  0
   -0.4635   -5.0339    0.0000 C   0  0  0  0  0  0  0  0  0  0  0  0
   -1.9635   -5.0339    0.0000 C   0  0  0  0  0  0  0  0  0  0  0  0
   -2.8452   -6.2474    0.0000 O   0  0  0  0  0  0  0  0  0  0  0  0
   -2.4271   -3.6073    0.0000 C   0  0  0  0  0  0  0  0  0  0  0  0
   -3.8536   -3.1438    0.0000 C   0  0  0  0  0  0  0  0  0  0  0  0
   -4.3172   -1.7172    0.0000 C   0  0  0  0  0  0  0  0  0  0  0  0
   -3.4355   -0.5037    0.0000 O   0  0  0  0  0  0  0  0  0  0  0  0
   -5.8172   -1.7172    0.0000 C   0  0  0  0  0  0  0  0  0  0  0  0
   -6.6988   -0.5037    0.0000 C   0  0  0  0  0  0  0  0  0  0  0  0
   -8.1906   -0.6605    0.0000 C   0  0  0  0  0  0  0  0  0  0  0  0
   -9.0723    0.5531    0.0000 C   0  0  0  0  0  0  0  0  0  0  0  0
  -10.5641    0.3963    0.0000 C   0  0  0  0  0  0  0  0  0  0  0  0
  -11.1742   -0.9740    0.0000 C   0  0  0  0  0  0  0  0  0  0  0  0
  -12.6660   -1.1308    0.0000 O   0  0  0  0  0  0  0  0  0  0  0  0
  -13.5476    0.0827    0.0000 Si  0  0  0  0  0  4  0  0  0  0  0  0
  -12.3341    0.9644    0.0000 C   0  0  0  0  0  0  0  0  0  0  0  0
  -11.2572    0.7745    0.0000 C   0  0  0  0  0  0  0  0  0  0  0  0
  -12.4909    2.4562    0.0000 C   0  0  0  0  0  0  0  0  0  0  0  0
  -14.7612   -0.7990    0.0000 C   0  0  0  0  0  0  0  0  0  0  0  0
  -16.1315   -0.1889    0.0000 C   0  0  0  0  0  0  0  0  0  0  0  0
  -14.6044   -2.2908    0.0000 C   0  0  0  0  0  0  0  0  0  0  0  0
  -14.4293    1.2962    0.0000 C   0  0  0  0  0  0  0  0  0  0  0  0
  -15.9211    1.1394    0.0000 C   0  0  0  0  0  0  0  0  0  0  0  0
  -13.8192    2.6665    0.0000 C   0  0  0  0  0  0  0  0  0  0  0  0
  -10.2925   -2.1876    0.0000 C   0  0  0  0  0  0  0  0  0  0  0  0
   -8.8007   -2.0308    0.0000 C   0  0  0  0  0  0  0  0  0  0  0  0
   -6.2807   -3.1438    0.0000 C   0  0  0  0  0  0  0  0  0  0  0  0
   -7.4942   -4.0255    0.0000 N   0  0  0  0  0  0  0  0  0  0  0  0
   -7.0307   -5.4520    0.0000 C   0  0  0  0  0  0  0  0  0  0  0  0
   -7.7807   -6.7511    0.0000 C   0  0  0  0  0  0  0  0  0  0  0  0
   -7.0307   -8.0501    0.0000 C   0  0  0  0  0  0  0  0  0  0  0  0
   -5.5307   -8.0501    0.0000 C   0  0  0  0  0  0  0  0  0  0  0  0
   -4.7807   -6.7511    0.0000 C   0  0  0  0  0  0  0  0  0  0  0  0
   -5.5307   -5.4520    0.0000 C   0  0  0  0  0  0  0  0  0  0  0  0
   -5.0672   -4.0255    0.0000 C   0  0  0  0  0  0  0  0  0  0  0  0
   -1.2135   -2.7256    0.0000 C   0  0  0  0  0  0  0  0  0  0  0  0
   -0.0000   -3.6073    0.0000 C   0  0  0  0  0  0  0  0  0  0  0  0
    1.2135   -2.7256    0.0000 N   0  0  0  0  0  0  0  0  0  0  0  0
    0.7500   -1.2990    0.0000 C   0  0  0  0  0  0  0  0  0  0  0  0
    1.5000    0.0000    0.0000 C   0  0  0  0  0  0  0  0  0  0  0  0
    0.7500    1.2990    0.0000 C   0  0  0  0  0  0  0  0  0  0  0  0
   -0.7500    1.2990    0.0000 C   0  0  0  0  0  0  0  0  0  0  0  0
   -1.5000    0.0000    0.0000 C   0  0  0  0  0  0  0  0  0  0  0  0
   -0.7500   -1.2990    0.0000 C   0  0  0  0  0  0  0  0  0  0  0  0
    0.6897   -8.8313    0.0000 C   0  0  0  0  0  0  0  0  0  0  0  0
    0.0796  -10.2016    0.0000 C   0  0  0  0  0  0  0  0  0  0  0  0
   -3.6708  -10.3937    0.0000 C   0  0  0  0  0  0  0  0  0  0  0  0
   -5.0412   -9.7836    0.0000 C   0  0  0  0  0  0  0  0  0  0  0  0
   -2.9680   -9.5560    0.0000 C   0  0  0  0  0  0  0  0  0  0  0  0
   -5.0058  -12.0423    0.0000 C   0  0  0  0  0  0  0  0  0  0  0  0
   -5.8875  -10.8287    0.0000 C   0  0  0  0  0  0  0  0  0  0  0  0
   -5.6159  -13.4126    0.0000 C   0  0  0  0  0  0  0  0  0  0  0  0
  1  2  1  0
  2  3  1  0
  2  4  1  0
  4  5  1  0
  5  6  1  0
  6  7  1  0
  7  8  2  0
  8  9  1  0
  9 10  1  0
 10 11  2  3
 11 12  1  0
 12 13  2  0
 12 14  1  0
 14 15  1  0
 15 16  1  0
 16 17  2  0
 16 18  1  0
 18 19  2  3
 19 20  1  0
 20 21  1  0
 21 22  2  0
 22 23  1  0
 23 24  1  0
 24 25  1  0
 25 26  1  0
 26 27  1  0
 26 28  1  0
 25 29  1  0
 29 30  1  0
 29 31  1  0
 25 32  1  0
 32 33  1  0
 32 34  1  0
 23 35  2  0
 35 36  1  0
 18 37  1  0
 37 38  1  0
 38 39  1  0
 39 40  2  0
 40 41  1  0
 41 42  2  0
 42 43  1  0
 43 44  2  0
 44 45  1  0
 14 46  1  0
 46 47  2  0
 47 48  1  0
 48 49  1  0
 49 50  2  0
 50 51  1  0
 51 52  2  0
 52 53  1  0
 53 54  2  0
  9 55  2  0
 55 56  1  0
  4 57  1  0
 57 58  1  0
 57 59  1  0
  4 60  1  0
 60 61  1  0
 60 62  1  0
 56  6  2  0
 47 11  1  0
 54 49  1  0
 45 15  1  0
 54 46  1  0
 36 20  2  0
 45 37  2  0
 44 39  1  0
M  END
$$$$
17
     RDKit          2D

 62 69  0  0  0  0  0  0  0  0999 V2000
   -4.5708  -14.2589    0.0000 C   0  0  0  0  0  0  0  0  0  0  0  0
   -3.3573  -13.3773    0.0000 C   0  0  0  0  0  0  0  0  0  0  0  0
   -1.9869  -13.9874    0.0000 C   0  0  0  0  0  0  0  0  0  0  0  0
   -3.5141  -11.8855    0.0000 Si  0  0  0  0  0  4  0  0  0  0  0  0
   -2.0223  -11.7287    0.0000 O   0  0  0  0  0  0  0  0  0  0  0  0
   -1.4122  -10.3584    0.0000 C   0  0  0  0  0  0  0  0  0  0  0  0
   -2.2938   -9.1448    0.0000 C   0  0  0  0  0  0  0  0  0  0  0  0
   -1.6837   -7.7745    0.0000 C   0  0  0  0  0  0  0  0  0  0  0  0
   -0.1920   -7.6177    0.0000 C   0  0  0  0  0  0  0  0  0  0  0  0
    0.4182   -6.2474    0.0000 C   0  0  0  0  0  0  0  0  0  0  0  0
   -0.4635   -5.0339    0.0000 C   0  0  0  0  0  0  0  0  0  0  0  0
   -1.9635   -5.0339    0.0000 C   0  0  0  0  0  0  0  0  0  0  0  0
   -2.8452   -6.2474    0.0000 O   0  0  0  0  0  0  0  0  0  0  0  0
   -2.4271   -3.6073    0.0000 C   0  0  0  0  0  0  0  0  0  0  0  0
   -3.8536   -3.1438    0.0000 C   0  0  0  0  0  0  0  0  0  0  0  0
   -4.3172   -1.7172    0.0000 C   0  0  0  0  0  0  0  0  0  0  0  0
   -3.4355   -0.5037    0.0000 O   0  0  0  0  0  0  0  0  0  0  0  0
   -5.8172   -1.7172    0.0000 C   0  0  0  0  0  0  0  0  0  0  0  0
   -6.6988   -0.5037    0.0000 C   0  0  0  0  0  0  0  0  0  0  0  0
   -8.1906   -0.6605    0.0000 C   0  0  0  0  0  0  0  0  0  0  0  0
   -9.0723    0.5531    0.0000 C   0  0  0  0  0  0  0  0  0  0  0  0
  -10.5641    0.3963    0.0000 C   0  0  0  0  0  0  0  0  0  0  0  0
  -11.1742   -0.9740    0.0000 C   0  0  0  0  0  0  0  0  0  0  0  0
  -12.6660   -1.1308    0.0000 O   0  0  0  0  0  0  0  0  0  0  0  0
  -13.5476    0.0827    0.0000 Si  0  0  0  0  0  4  0  0  0  0  0  0
  -12.3341    0.9644    0.0000 C   0  0  0  0  0  0  0  0  0  0  0  0
  -11.2572    0.7745    0.0000 C   0  0  0  0  0  0  0  0  0  0  0  0
  -12.4909    2.4562    0.0000 C   0  0  0  0  0  0  0  0  0  0  0  0
  -14.7612   -0.7990    0.0000 C   0  0  0  0  0  0  0  0  0  0  0  0
  -16.1315   -0.1889    0.0000 C   0  0  0  0  0  0  0  0  0  0  0  0
  -14.6044   -2.2908    0.0000 C   0  0  0  0  0  0  0  0  0  0  0  0
  -14.4293    1.2962    0.0000 C   0  0  0  0  0  0  0  0  0  0  0  0
  -15.9211    1.1394    0.0000 C   0  0  0  0  0  0  0  0  0  0  0  0
  -13.8192    2.6665    0.0000 C   0  0  0  0  0  0  0  0  0  0  0  0
  -10.2925   -2.1876    0.0000 C   0  0  0  0  0  0  0  0  0  0  0  0
   -8.8007   -2.0308    0.0000 C   0  0  0  0  0  0  0  0  0  0  0  0
   -6.2807   -3.1438    0.0000 C   0  0  0  0  0  0  0  0  0  0  0  0
   -7.4942   -4.0255    0.0000 N   0  0  0  0  0  0  0  0  0  0  0  0
   -7.0307   -5.4520    0.0000 C   0  0  0  0  0  0  0  0  0  0  0  0
   -7.7807   -6.7511    0.0000 C   0  0  0  0  0  0  0  0  0  0  0  0
   -7.0307   -8.0501    0.0000 C   0  0  0  0  0  0  0  0  0  0  0  0
   -5.5307   -8.0501    0.0000 C   0  0  0  0  0  0  0  0  0  0  0  0
   -4.7807   -6.7511    0.0000 C   0  0  0  0  0  0  0  0  0  0  0  0
   -5.5307   -5.4520    0.0000 C   0  0  0  0  0  0  0  0  0  0  0  0
   -5.0672   -4.0255    0.0000 C   0  0  0  0  0  0  0  0  0  0  0  0
   -1.2135   -2.7256    0.0000 C   0  0  0  0  0  0  0  0  0  0  0  0
   -0.0000   -3.6073    0.0000 C   0  0  0  0  0  0  0  0  0  0  0  0
    1.2135   -2.7256    0.0000 N   0  0  0  0  0  0  0  0  0  0  0  0
    0.7500   -1.2990    0.0000 C   0  0  0  0  0  0  0  0  0  0  0  0
    1.5000    0.0000    0.0000 C   0  0  0  0  0  0  0  0  0  0  0  0
    0.7500    1.2990    0.0000 C   0  0  0  0  0  0  0  0  0  0  0  0
   -0.7500    1.2990    0.0000 C   0  0  0  0  0  0  0  0  0  0  0  0
   -1.5000    0.0000    0.0000 C   0  0  0  0  0  0  0  0  0  0  0  0
   -0.7500   -1.2990    0.0000 C   0  0  0  0  0  0  0  0  0  0  0  0
    0.6897   -8.8313    0.0000 C   0  0  0  0  0  0  0  0  0  0  0  0
    0.0796  -10.2016    0.0000 C   0  0  0  0  0  0  0  0  0  0  0  0
   -3.6708  -10.3937    0.0000 C   0  0  0  0  0  0  0  0  0  0  0  0
   -5.0412   -9.7836    0.0000 C   0  0  0  0  0  0  0  0  0  0  0  0
   -2.9680   -9.5560    0.0000 C   0  0  0  0  0  0  0  0  0  0  0  0
   -5.0058  -12.0423    0.0000 C   0  0  0  0  0  0  0  0  0  0  0  0
   -5.8875  -10.8287    0.0000 C   0  0  0  0  0  0  0  0  0  0  0  0
   -5.6159  -13.4126    0.0000 C   0  0  0  0  0  0  0  0  0  0  0  0
  1  2  1  0
  2  3  1  0
  2  4  1  0
  4  5  1  0
  5  6  1  0
  6  7  1  0
  7  8  2  0
  8  9  1  0
  9 10  1  0
 10 11  2  3
 11 12  1  0
 12 13  2  0
 12 14  1  0
 14 15  2  3
 15 16  1  0
 16 17  2  0
 16 18  1  0
 18 19  2  3
 19 20  1  0
 20 21  1  0
 21 22  2  0
 22 23  1  0
 23 24  1  0
 24 25  1  0
 25 26  1  0
 26 27  1  0
 26 28  1  0
 25 29  1  0
 29 30  1  0
 29 31  1  0
 25 32  1  0
 32 33  1  0
 32 34  1  0
 23 35  2  0
 35 36  1  0
 18 37  1  0
 37 38  1  0
 38 39  1  0
 39 40  2  0
 40 41  1  0
 41 42  2  0
 42 43  1  0
 43 44  2  0
 44 45  1  0
 14 46  1  0
 46 47  2  0
 47 48  1  0
 48 49  1  0
 49 50  2  0
 50 51  1  0
 51 52  2  0
 52 53  1  0
 53 54  2  0
  9 55  2  0
 55 56  1  0
  4 57  1  0
 57 58  1  0
 57 59  1  0
  4 60  1  0
 60 61  1  0
 60 62  1  0
 56  6  2  0
 47 11  1  0
 54 49  1  0
 45 15  1  0
 54 46  1  0
 36 20  2  0
 45 37  2  0
 44 39  1  0
M  END
$$$$
16
     RDKit          2D

 62 69  0  0  0  0  0  0  0  0999 V2000
   -4.5708  -14.2589    0.0000 C   0  0  0  0  0  0  0  0  0  0  0  0
   -3.3573  -13.3773    0.0000 C   0  0  0  0  0  0  0  0  0  0  0  0
   -1.9869  -13.9874    0.0000 C   0  0  0  0  0  0  0  0  0  0  0  0
   -3.5141  -11.8855    0.0000 Si  0  0  0  0  0  4  0  0  0  0  0  0
   -2.0223  -11.7287    0.0000 O   0  0  0  0  0  0  0  0  0  0  0  0
   -1.4122  -10.3584    0.0000 C   0  0  0  0  0  0  0  0  0  0  0  0
   -2.2938   -9.1448    0.0000 C   0  0  0  0  0  0  0  0  0  0  0  0
   -1.6837   -7.7745    0.0000 C   0  0  0  0  0  0  0  0  0  0  0  0
   -0.1920   -7.6177    0.0000 C   0  0  0  0  0  0  0  0  0  0  0  0
    0.4182   -6.2474    0.0000 C   0  0  0  0  0  0  0  0  0  0  0  0
   -0.4635   -5.0339    0.0000 C   0  0  0  0  0  0  0  0  0  0  0  0
   -1.9635   -5.0339    0.0000 C   0  0  0  0  0  0  0  0  0  0  0  0
   -2.8452   -6.2474    0.0000 O   0  0  0  0  0  0  0  0  0  0  0  0
   -2.4271   -3.6073    0.0000 C   0  0  0  0  0  0  0  0  0  0  0  0
   -3.8536   -3.1438    0.0000 C   0  0  0  0  0  0  0  0  0  0  0  0
   -5.0672   -4.0255    0.0000 C   0  0  0  0  0  0  0  0  0  0  0  0
   -6.2807   -3.1438    0.0000 C   0  0  0  0  0  0  0  0  0  0  0  0
   -7.4942   -4.0255    0.0000 N   0  0  0  0  0  0  0  0  0  0  0  0
   -7.0307   -5.4520    0.0000 C   0  0  0  0  0  0  0  0  0  0  0  0
   -7.7807   -6.7511    0.0000 C   0  0  0  0  0  0  0  0  0  0  0  0
   -7.0307   -8.0501    0.0000 C   0  0  0  0  0  0  0  0  0  0  0  0
   -5.5307   -8.0501    0.0000 C   0  0  0  0  0  0  0  0  0  0  0  0
   -4.7807   -6.7511    0.0000 C   0  0  0  0  0  0  0  0  0  0  0  0
   -5.5307   -5.4520    0.0000 C   0  0  0  0  0  0  0  0  0  0  0  0
   -5.8172   -1.7172    0.0000 C   0  0  0  0  0  0  0  0  0  0  0  0
   -6.6988   -0.5037    0.0000 C   0  0  0  0  0  0  0  0  0  0  0  0
   -6.0887    0.8667    0.0000 C   0  0  0  0  0  0  0  0  0  0  0  0
   -4.5970    1.0234    0.0000 C   0  0  0  0  0  0  0  0  0  0  0  0
   -3.9868    2.3938    0.0000 C   0  0  0  0  0  0  0  0  0  0  0  0
   -4.8685    3.6073    0.0000 C   0  0  0  0  0  0  0  0  0  0  0  0
   -4.2584    4.9776    0.0000 O   0  0  0  0  0  0  0  0  0  0  0  0
   -5.1401    6.1911    0.0000 Si  0  0  0  0  0  4  0  0  0  0  0  0
   -3.9266    7.0728    0.0000 C   0  0  0  0  0  0  0  0  0  0  0  0
   -4.0834    8.5646    0.0000 C   0  0  0  0  0  0  0  0  0  0  0  0
   -2.5563    6.4627    0.0000 C   0  0  0  0  0  0  0  0  0  0  0  0
   -6.3536    5.3095    0.0000 C   0  0  0  0  0  0  0  0  0  0  0  0
   -6.5059    4.2266    0.0000 C   0  0  0  0  0  0  0  0  0  0  0  0
   -7.7239    5.9196    0.0000 C   0  0  0  0  0  0  0  0  0  0  0  0
   -6.0218    7.4047    0.0000 C   0  0  0  0  0  0  0  0  0  0  0  0
   -7.5136    7.2479    0.0000 C   0  0  0  0  0  0  0  0  0  0  0  0
   -5.4117    8.7750    0.0000 C   0  0  0  0  0  0  0  0  0  0  0  0
   -6.3603    3.4505    0.0000 C   0  0  0  0  0  0  0  0  0  0  0  0
   -6.9704    2.0802    0.0000 C   0  0  0  0  0  0  0  0  0  0  0  0
   -4.3172   -1.7172    0.0000 C   0  0  0  0  0  0  0  0  0  0  0  0
   -3.4355   -0.5037    0.0000 O   0  0  0  0  0  0  0  0  0  0  0  0
   -1.2135   -2.7256    0.0000 C   0  0  0  0  0  0  0  0  0  0  0  0
   -0.0000   -3.6073    0.0000 C   0  0  0  0  0  0  0  0  0  0  0  0
    1.2135   -2.7256    0.0000 N   0  0  0  0  0  0  0  0  0  0  0  0
    0.7500   -1.2990    0.0000 C   0  0  0  0  0  0  0  0  0  0  0  0
    1.5000    0.0000    0.0000 C   0  0  0  0  0  0  0  0  0  0  0  0
    0.7500    1.2990    0.0000 C   0  0  0  0  0  0  0  0  0  0  0  0
   -0.7500    1.2990    0.0000 C   0  0  0  0  0  0  0  0  0  0  0  0
   -1.5000    0.0000    0.0000 C   0  0  0  0  0  0  0  0  0  0  0  0
   -0.7500   -1.2990    0.0000 C   0  0  0  0  0  0  0  0  0  0  0  0
    0.6897   -8.8313    0.0000 C   0  0  0  0  0  0  0  0  0  0  0  0
    0.0796  -10.2016    0.0000 C   0  0  0  0  0  0  0  0  0  0  0  0
   -3.6708  -10.3937    0.0000 C   0  0  0  0  0  0  0  0  0  0  0  0
   -5.0412   -9.7836    0.0000 C   0  0  0  0  0  0  0  0  0  0  0  0
   -2.9680   -9.5560    0.0000 C   0  0  0  0  0  0  0  0  0  0  0  0
   -5.0058  -12.0423    0.0000 C   0  0  0  0  0  0  0  0  0  0  0  0
   -5.8875  -10.8287    0.0000 C   0  0  0  0  0  0  0  0  0  0  0  0
   -5.6159  -13.4126    0.0000 C   0  0  0  0  0  0  0  0  0  0  0  0
  1  2  1  0
  2  3  1  0
  2  4  1  0
  4  5  1  0
  5  6  1  0
  6  7  1  0
  7  8  2  0
  8  9  1  0
  9 10  1  0
 10 11  2  3
 11 12  1  0
 12 13  2  0
 12 14  1  0
 14 15  1  0
 15 16  2  0
 16 17  1  0
 17 18  2  0
 18 19  1  0
 19 20  2  0
 20 21  1  0
 21 22  2  0
 22 23  1  0
 23 24  2  0
 17 25  1  0
 25 26  2  3
 26 27  1  0
 27 28  1  0
 28 29  2  0
 29 30  1  0
 30 31  1  0
 31 32  1  0
 32 33  1  0
 33 34  1  0
 33 35  1  0
 32 36  1  0
 36 37  1  0
 36 38  1  0
 32 39  1  0
 39 40  1  0
 39 41  1  0
 30 42  2  0
 42 43  1  0
 25 44  1  0
 44 45  2  0
 14 46  2  0
 46 47  1  0
 47 48  2  0
 48 49  1  0
 49 50  2  0
 50 51  1  0
 51 52  2  0
 52 53  1  0
 53 54  2  0
  9 55  2  0
 55 56  1  0
  4 57  1  0
 57 58  1  0
 57 59  1  0
  4 60  1  0
 60 61  1  0
 60 62  1  0
 56  6  2  0
 47 11  1  0
 54 49  1  0
 44 15  1  0
 54 46  1  0
 24 16  1  0
 43 27  2  0
 24 19  1  0
M  END
$$$$
1
     RDKit          2D

 42 49  0  0  0  0  0  0  0  0999 V2000
   -2.8452   -6.2474    0.0000 O   0  0  0  0  0  0  0  0  0  0  0  0
   -1.9635   -5.0339    0.0000 C   0  0  0  0  0  0  0  0  0  0  0  0
   -0.4635   -5.0339    0.0000 C   0  0  0  0  0  0  0  0  0  0  0  0
    0.4182   -6.2474    0.0000 C   0  0  0  0  0  0  0  0  0  0  0  0
   -0.1920   -7.6177    0.0000 C   0  0  0  0  0  0  0  0  0  0  0  0
   -1.6837   -7.7745    0.0000 C   0  0  0  0  0  0  0  0  0  0  0  0
   -2.2938   -9.1448    0.0000 C   0  0  0  0  0  0  0  0  0  0  0  0
   -1.4122  -10.3584    0.0000 C   0  0  0  0  0  0  0  0  0  0  0  0
   -2.0223  -11.7287    0.0000 O   0  0  0  0  0  0  0  0  0  0  0  0
    0.0796  -10.2016    0.0000 C   0  0  0  0  0  0  0  0  0  0  0  0
    0.6897   -8.8313    0.0000 C   0  0  0  0  0  0  0  0  0  0  0  0
   -0.0000   -3.6073    0.0000 C   0  0  0  0  0  0  0  0  0  0  0  0
    1.2135   -2.7256    0.0000 N   0  0  0  0  0  0  0  0  0  0  0  0
    0.7500   -1.2990    0.0000 C   0  0  0  0  0  0  0  0  0  0  0  0
    1.5000    0.0000    0.0000 C   0  0  0  0  0  0  0  0  0  0  0  0
    0.7500    1.2990    0.0000 C   0  0  0  0  0  0  0  0  0  0  0  0
   -0.7500    1.2990    0.0000 C   0  0  0  0  0  0  0  0  0  0  0  0
   -1.5000    0.0000    0.0000 C   0  0  0  0  0  0  0  0  0  0  0  0
   -0.7500   -1.2990    0.0000 C   0  0  0  0  0  0  0  0  0  0  0  0
   -1.2135   -2.7256    0.0000 C   0  0  0  0  0  0  0  0  0  0  0  0
   -2.4271   -3.6073    0.0000 C   0  0  0  0  0  0  0  0  0  0  0  0
   -3.8536   -3.1438    0.0000 C   0  0  0  0  0  0  0  0  0  0  0  0
   -5.0672   -4.0255    0.0000 C   0  0  0  0  0  0  0  0  0  0  0  0
   -6.2807   -3.1438    0.0000 C   0  0  0  0  0  0  0  0  0  0  0  0
   -7.4942   -4.0255    0.0000 N   0  0  0  0  0  0  0  0  0  0  0  0
   -7.0307   -5.4520    0.0000 C   0  0  0  0  0  0  0  0  0  0  0  0
   -7.7807   -6.7511    0.0000 C   0  0  0  0  0  0  0  0  0  0  0  0
   -7.0307   -8.0501    0.0000 C   0  0  0  0  0  0  0  0  0  0  0  0
   -5.5307   -8.0501    0.0000 C   0  0  0  0  0  0  0  0  0  0  0  0
   -4.7807   -6.7511    0.0000 C   0  0  0  0  0  0  0  0  0  0  0  0
   -5.5307   -5.4520    0.0000 C   0  0  0  0  0  0  0  0  0  0  0  0
   -5.8172   -1.7172    0.0000 C   0  0  0  0  0  0  0  0  0  0  0  0
   -6.6988   -0.5037    0.0000 C   0  0  0  0  0  0  0  0  0  0  0  0
   -6.0887    0.8667    0.0000 C   0  0  0  0  0  0  0  0  0  0  0  0
   -4.5970    1.0234    0.0000 C   0  0  0  0  0  0  0  0  0  0  0  0
   -3.9868    2.3938    0.0000 C   0  0  0  0  0  0  0  0  0  0  0  0
   -4.8685    3.6073    0.0000 C   0  0  0  0  0  0  0  0  0  0  0  0
   -4.2584    4.9776    0.0000 O   0  0  0  0  0  0  0  0  0  0  0  0
   -6.3603    3.4505    0.0000 C   0  0  0  0  0  0  0  0  0  0  0  0
   -6.9704    2.0802    0.0000 C   0  0  0  0  0  0  0  0  0  0  0  0
   -4.3172   -1.7172    0.0000 C   0  0  0  0  0  0  0  0  0  0  0  0
   -3.4355   -0.5037    0.0000 O   0  0  0  0  0  0  0  0  0  0  0  0
  1  2  2  0
  2  3  1  0
  3  4  2  3
  4  5  1  0
  5  6  1  0
  6  7  2  0
  7  8  1  0
  8  9  1  0
  8 10  2  0
 10 11  1  0
  3 12  1  0
 12 13  2  0
 13 14  1  0
 14 15  2  0
 15 16  1  0
 16 17  2  0
 17 18  1  0
 18 19  2  0
 19 20  1  0
 20 21  2  0
 21 22  1  0
 22 23  2  0
 23 24  1  0
 24 25  2  0
 25 26  1  0
 26 27  2  0
 27 28  1  0
 28 29  2  0
 29 30  1  0
 30 31  2  0
 24 32  1  0
 32 33  2  3
 33 34  1  0
 34 35  1  0
 35 36  2  0
 36 37  1  0
 37 38  1  0
 37 39  2  0
 39 40  1  0
 32 41  1  0
 41 42  2  0
 21  2  1  0
 41 22  1  0
 11  5  2  0
 20 12  1  0
 31 23  1  0
 40 34  2  0
 19 14  1  0
 31 26  1  0
M  END
$$$$
2
     RDKit          2D

 42 49  0  0  0  0  0  0  0  0999 V2000
   -2.8452   -6.2474    0.0000 O   0  0  0  0  0  0  0  0  0  0  0  0
   -1.9635   -5.0339    0.0000 C   0  0  0  0  0  0  0  0  0  0  0  0
   -0.4635   -5.0339    0.0000 C   0  0  0  0  0  0  0  0  0  0  0  0
    0.4182   -6.2474    0.0000 C   0  0  0  0  0  0  0  0  0  0  0  0
   -0.1920   -7.6177    0.0000 C   0  0  0  0  0  0  0  0  0  0  0  0
   -1.6837   -7.7745    0.0000 C   0  0  0  0  0  0  0  0  0  0  0  0
   -2.2938   -9.1448    0.0000 C   0  0  0  0  0  0  0  0  0  0  0  0
   -1.4122  -10.3584    0.0000 C   0  0  0  0  0  0  0  0  0  0  0  0
   -2.0223  -11.7287    0.0000 O   0  0  0  0  0  0  0  0  0  0  0  0
    0.0796  -10.2016    0.0000 C   0  0  0  0  0  0  0  0  0  0  0  0
    0.6897   -8.8313    0.0000 C   0  0  0  0  0  0  0  0  0  0  0  0
   -0.0000   -3.6073    0.0000 C   0  0  0  0  0  0  0  0  0  0  0  0
    1.2135   -2.7256    0.0000 N   0  0  0  0  0  0  0  0  0  0  0  0
    0.7500   -1.2990    0.0000 C   0  0  0  0  0  0  0  0  0  0  0  0
    1.5000    0.0000    0.0000 C   0  0  0  0  0  0  0  0  0  0  0  0
    0.7500    1.2990    0.0000 C   0  0  0  0  0  0  0  0  0  0  0  0
   -0.7500    1.2990    0.0000 C   0  0  0  0  0  0  0  0  0  0  0  0
   -1.5000    0.0000    0.0000 C   0  0  0  0  0  0  0  0  0  0  0  0
   -0.7500   -1.2990    0.0000 C   0  0  0  0  0  0  0  0  0  0  0  0
   -1.2135   -2.7256    0.0000 C   0  0  0  0  0  0  0  0  0  0  0  0
   -2.4271   -3.6073    0.0000 C   0  0  0  0  0  0  0  0  0  0  0  0
   -3.8536   -3.1438    0.0000 C   0  0  0  0  0  0  0  0  0  0  0  0
   -4.3172   -1.7172    0.0000 C   0  0  0  0  0  0  0  0  0  0  0  0
   -3.4355   -0.5037    0.0000 O   0  0  0  0  0  0  0  0  0  0  0  0
   -5.8172   -1.7172    0.0000 C   0  0  0  0  0  0  0  0  0  0  0  0
   -6.6988   -0.5037    0.0000 C   0  0  0  0  0  0  0  0  0  0  0  0
   -8.1906   -0.6605    0.0000 C   0  0  0  0  0  0  0  0  0  0  0  0
   -9.0723    0.5531    0.0000 C   0  0  0  0  0  0  0  0  0  0  0  0
  -10.5641    0.3963    0.0000 C   0  0  0  0  0  0  0  0  0  0  0  0
  -11.1742   -0.9740    0.0000 C   0  0  0  0  0  0  0  0  0  0  0  0
  -12.6660   -1.1308    0.0000 O   0  0  0  0  0  0  0  0  0  0  0  0
  -10.2925   -2.1876    0.0000 C   0  0  0  0  0  0  0  0  0  0  0  0
   -8.8007   -2.0308    0.0000 C   0  0  0  0  0  0  0  0  0  0  0  0
   -6.2807   -3.1438    0.0000 C   0  0  0  0  0  0  0  0  0  0  0  0
   -7.4942   -4.0255    0.0000 N   0  0  0  0  0  0  0  0  0  0  0  0
   -7.0307   -5.4520    0.0000 C   0  0  0  0  0  0  0  0  0  0  0  0
   -7.7807   -6.7511    0.0000 C   0  0  0  0  0  0  0  0  0  0  0  0
   -7.0307   -8.0501    0.0000 C   0  0  0  0  0  0  0  0  0  0  0  0
   -5.5307   -8.0501    0.0000 C   0  0  0  0  0  0  0  0  0  0  0  0
   -4.7807   -6.7511    0.0000 C   0  0  0  0  0  0  0  0  0  0  0  0
   -5.5307   -5.4520    0.0000 C   0  0  0  0  0  0  0  0  0  0  0  0
   -5.0672   -4.0255    0.0000 C   0  0  0  0  0  0  0  0  0  0  0  0
  1  2  2  0
  2  3  1  0
  3  4  2  3
  4  5  1  0
  5  6  1  0
  6  7  2  0
  7  8  1  0
  8  9  1  0
  8 10  2  0
 10 11  1  0
  3 12  1  0
 12 13  1  0
 13 14  1  0
 14 15  2  0
 15 16  1  0
 16 17  2  0
 17 18  1  0
 18 19  2  0
 19 20  1  0
 20 21  1  0
 21 22  2  3
 22 23  1  0
 23 24  2  0
 23 25  1  0
 25 26  2  3
 26 27  1  0
 27 28  1  0
 28 29  2  0
 29 30  1  0
 30 31  1  0
 30 32  2  0
 32 33  1  0
 25 34  1  0
 34 35  1  0
 35 36  1  0
 36 37  2  0
 37 38  1  0
 38 39  2  0
 39 40  1  0
 40 41  2  0
 41 42  1  0
 21  2  1  0
 42 22  1  0
 11  5  2  0
 20 12  2  0
 33 27  2  0
 42 34  2  0
 19 14  1  0
 41 36  1  0
M  END
$$$$
